geometry optimzed in LAMMPS
_audit_creation_date              2020-11-30 
_audit_creation_method            'lammps2cif' 
_symmetry_space_group_name_H-M    'P1' 
_symmetry_Int_Tables_number       1 
_symmetry_cell_setting            triclinic 
loop_ 
_symmetry_equiv_pos_as_xyz 
  x,y,z 
_cell_length_a                    49.09427166663539 
_cell_length_b                    41.21442969001643 
_cell_length_c                    28.594979011638404 
_cell_angle_alpha                 90.38319315591737 
_cell_angle_beta                  89.72971679321839 
_cell_angle_gamma                 89.84644618771158 
loop_ 
_atom_site_label 
_atom_site_type_symbol 
_atom_site_fract_x 
_atom_site_fract_y 
_atom_site_fract_z 
_atom_site_charge 
C1          C  0.43076140  0.42662852  0.85634621    -0.02180
O2          O  0.49099964  0.48068477  0.41634906    -0.74980
O3          O  0.46135871  0.46227998  0.47222699    -0.53890
C4          C  0.48251825  0.47856148  0.45799367     0.78750
O5          O  0.38488086  0.49190252  0.26821940    -0.59580
O6          O  0.40807801  0.46318992  0.21177523    -0.52610
C7          C  0.39154221  0.48525349  0.22574309     0.70760
O8          O  0.37463790  0.49058174  0.42620793    -0.74140
O9          O  0.39526656  0.46175761  0.48385009    -0.54700
C10         C  0.37747053  0.48280026  0.46969018     0.76770
O11         O  0.48796948  0.47659569  0.26929968    -0.59280
O12         O  0.46335613  0.45307327  0.21163279    -0.52400
C13         C  0.48284146  0.47162856  0.22602348     0.73360
Zr14       Zr  0.47160169  0.46377589  0.34648736     2.54710
O15         O  0.47231748  0.02286583  0.34742517    -0.79850
O16         O  0.02040828  0.45405829  0.33996456    -0.93270
Zr17       Zr  0.39314573  0.47659053  0.34807287     2.64680
O18         O  0.40119493  0.03463873  0.35321436    -0.98220
O19         O  0.34443500  0.48476036  0.33845522    -0.80280
O20         O  0.43241466  0.47199343  0.39448913    -0.83640
O21         O  0.43284182  0.47051641  0.30109587    -2.18350
O22         O  0.48963962  0.36712190  0.28718811    -0.67030
O23         O  0.46336912  0.38424842  0.22652118    -0.51590
C24         C  0.48459191  0.37049081  0.24398331     0.71740
O25         O  0.36383234  0.36883386  0.41698425    -0.59940
O26         O  0.38960106  0.39226212  0.47474560    -0.51910
C27         C  0.36936258  0.37505192  0.45961847     0.73540
O28         O  0.36661853  0.37159879  0.26504517    -0.71330
O29         O  0.39484674  0.39176918  0.20953619    -0.50010
C30         C  0.37294973  0.37652577  0.22198606     0.74930
O31         O  0.47677538  0.35841796  0.43269867    -0.66660
O32         O  0.45524831  0.38783659  0.48898095    -0.53860
C33         C  0.47281361  0.36594803  0.47580277     0.73310
Zr34       Zr  0.46100528  0.36920065  0.35382366     2.77540
O35         O  0.44358542  0.31432305  0.34353379    -0.97410
O36         O  0.00398622  0.33983568  0.35563873    -0.78230
Zr37       Zr  0.38347349  0.38179593  0.34358644     2.70070
O38         O  0.38136491  0.32280252  0.33994376    -0.79480
O39         O  0.33422041  0.38889188  0.34309972    -0.98560
Zr40       Zr  0.42644199  0.42468216  0.44103268     2.21500
Zr41       Zr  0.42948566  0.42158560  0.25614200     2.11130
O42         O  0.42388590  0.37311076  0.30070500    -2.47250
O43         O  0.42061757  0.37562690  0.39667195    -0.79270
O44         O  0.46744738  0.41525187  0.30575917    -0.71470
O45         O  0.38751195  0.42898281  0.39123188    -2.32420
O46         O  0.46701492  0.41788750  0.39602010    -2.28630
O47         O  0.38852835  0.42952082  0.30001289    -0.73230
H48         H  0.43555472  0.48934724  0.28172160     0.78770
H49         H  0.37094616  0.43106977  0.40931067     0.79860
H50         H  0.42260858  0.35422195  0.28064697     0.82080
H51         H  0.48297159  0.41656574  0.41552291     0.79690
H52         H  0.33637203  0.46316254  0.34426508     0.42720
H53         H  0.33055525  0.40420936  0.31734063     0.41690
H54         H  0.38848297  0.31549209  0.37044397     0.41370
H55         H  0.45553965  0.30445045  0.31931668     0.39310
H56         H  0.01756241  0.35618001  0.36569102     0.42440
H57         H  0.02468697  0.43902775  0.36578664     0.37220
H58         H  0.45961792  0.02932035  0.37285188     0.43340
H59         H  0.41177478  0.03977617  0.32467840     0.39750
H60         H  0.44841087  0.30291997  0.37269609     0.44670
H61         H  0.02893212  0.47488029  0.34908989     0.43400
H62         H  0.38306116  0.04446378  0.34780611     0.43530
H63         H  0.32697908  0.36784467  0.33189140     0.43890
O64         O  0.48185640  0.23957437  0.92657657    -0.74980
O65         O  0.45965312  0.21208386  0.98443770    -0.53890
C66         C  0.47812670  0.23127395  0.96872223     0.78750
O67         O  0.36564259  0.23639575  0.79215996    -0.59580
O68         O  0.39149161  0.21293199  0.73428862    -0.52610
C69         C  0.37172350  0.23064213  0.74962377     0.70760
O70         O  0.36922849  0.23553336  0.94502603    -0.74140
O71         O  0.39610018  0.20981084  0.99787569    -0.54700
C72         C  0.37616672  0.22837295  0.98695589     0.76770
O73         O  0.47772570  0.23466597  0.77381142    -0.59280
O74         O  0.45466403  0.20785718  0.71791172    -0.52400
C75         C  0.47361520  0.22730728  0.73069383     0.73360
Zr76       Zr  0.46360962  0.22599110  0.85389365     2.54710
O77         O  0.45993651  0.28491591  0.85187729    -0.79850
O78         O  0.01296632  0.23089078  0.84705700    -0.93270
Zr79       Zr  0.38459659  0.22491015  0.86555641     2.64680
O80         O  0.38868322  0.28364462  0.87125946    -0.98220
O81         O  0.33523189  0.23049459  0.86821765    -0.80280
O82         O  0.42573365  0.22715233  0.90640687    -0.83640
O83         O  0.42269709  0.22706069  0.81314774    -2.18350
O84         O  0.48179480  0.11796572  0.78621374    -0.67030
O85         O  0.45734077  0.14362936  0.72960810    -0.51590
C86         C  0.47665588  0.12517567  0.74399391     0.71740
O87         O  0.37736945  0.10968009  0.93558479    -0.59940
O88         O  0.40212660  0.13629918  0.99145200    -0.51910
C89         C  0.38530563  0.11449132  0.97785726     0.73540
O90         O  0.36732684  0.12098553  0.77597772    -0.71330
O91         O  0.39453795  0.14566361  0.72234418    -0.50010
C92         C  0.37408015  0.12819675  0.73342092     0.74930
O93         O  0.48226378  0.12045829  0.93989692    -0.66660
O94         O  0.45659096  0.14632295  0.99522449    -0.53860
C95         C  0.47645348  0.12811695  0.98251644     0.73310
Zr96       Zr  0.46471213  0.12983500  0.86127626     2.77540
O97         O  0.46273004  0.07147727  0.87094576    -0.97410
O98         O  0.01418670  0.12576840  0.85923641    -0.78230
Zr99       Zr  0.38441717  0.12928897  0.85689723     2.70070
O100        O  0.38120318  0.07061419  0.84850285    -0.79480
O101        O  0.33511514  0.13276436  0.86408717    -0.98560
Zr102      Zr  0.42588070  0.17763128  0.94871151     2.21500
Zr103      Zr  0.42447660  0.17750869  0.76952830     2.11130
O104        O  0.42515559  0.12794383  0.81277071    -2.47250
O105        O  0.42427402  0.12869087  0.90422723    -0.79270
O106        O  0.46515758  0.17678288  0.81329693    -0.71470
O107        O  0.38404459  0.17585863  0.90679980    -2.32420
O108        O  0.46572892  0.17893612  0.90147015    -2.28630
O109        O  0.38423201  0.17821962  0.81614330    -0.73230
H110        H  0.42198319  0.24585833  0.79317857     0.78770
H111        H  0.36854521  0.17476813  0.92766182     0.79860
H112        H  0.42549262  0.10924448  0.79223817     0.82080
H113        H  0.48234696  0.17906786  0.91923256     0.79690
H114        H  0.32868047  0.20953836  0.88065586     0.42720
H115        H  0.32974388  0.14987579  0.84178053     0.41690
H116        H  0.39251427  0.06179749  0.87405224     0.41370
H117        H  0.44384190  0.06556800  0.86276977     0.39310
H118        H  0.02054612  0.14848328  0.86191129     0.42440
H119        H  0.02049269  0.21602205  0.87082794     0.37220
H120        H  0.45545053  0.29144755  0.88440287     0.43340
H121        H  0.40533262  0.28889798  0.85332723     0.39750
H122        H  0.47426598  0.06257006  0.84545140     0.44670
H123        H  0.01726089  0.25295154  0.85875876     0.43400
H124        H  0.37352281  0.29217572  0.85219344     0.43530
H125        H  0.32837912  0.11236125  0.84984373     0.43890
O126        O  0.20537365  0.48013491  0.96963071    -0.74980
O127        O  0.24244546  0.47026464  0.92304816    -0.53890
C128        C  0.23055247  0.48141365  0.96088065     0.78750
O129        O  0.13157375  0.36722390  0.94153780    -0.59580
O130        O  0.09626839  0.38846033  0.89957415    -0.52610
C131        C  0.10640493  0.37113779  0.93262316     0.70760
O132        O  0.22053459  0.37118853  0.95308314    -0.74140
O133        O  0.25418032  0.39925981  0.91546734    -0.54700
C134        C  0.24557501  0.37906915  0.94697337     0.76770
O135        O  0.12368697  0.48877084  0.94480548    -0.59280
O136        O  0.09264514  0.45679118  0.90754320    -0.52400
C137        C  0.09964201  0.47779445  0.93926698     0.73360
Zr138      Zr  0.16911265  0.47858125  0.91757511     2.54710
O139        O  0.15989752  0.49381602  0.99863116    -0.79850
O140        O  0.17712788  0.03632370  0.90766373    -0.93270
Zr141      Zr  0.17602484  0.38405506  0.92172710     2.64680
O142        O  0.17470347  0.39388400  0.00584134    -0.98220
O143        O  0.17796083  0.32561261  0.93101566    -0.80280
O144        O  0.19890874  0.43338083  0.92190788    -0.83640
O145        O  0.14591844  0.42892160  0.91835557    -2.18350
O146        O  0.13073533  0.48947825  0.75916339    -0.67030
O147        O  0.09591021  0.46361627  0.79707287    -0.51590
C148        C  0.10561994  0.48297500  0.76607995     0.71740
O149        O  0.22106116  0.37987831  0.75426356    -0.59940
O150        O  0.25481088  0.39621007  0.80355110    -0.51910
C151        C  0.24584337  0.38192882  0.76613395     0.73540
O152        O  0.13665594  0.36820872  0.74895157    -0.71330
O153        O  0.09986029  0.39223147  0.78349056    -0.50010
C154        C  0.11116124  0.37396985  0.75143146     0.74930
O155        O  0.21982720  0.48335601  0.74814394    -0.66660
O156        O  0.25357006  0.46650904  0.79722491    -0.53860
C157        C  0.24500094  0.47968430  0.75865662     0.73310
Zr158      Zr  0.17573175  0.47706273  0.78500242     2.77540
O159        O  0.17539163  0.48095931  0.70004364    -0.97410
O160        O  0.18039909  0.03570798  0.79172227    -0.78230
Zr161      Zr  0.17765571  0.38193494  0.78844986     2.70070
O162        O  0.18001863  0.36583513  0.70649233    -0.79480
O163        O  0.18142031  0.32472946  0.80738211    -0.98560
Zr164      Zr  0.22960485  0.43321520  0.85752174     2.21500
Zr165      Zr  0.11974975  0.42631643  0.84801580     2.11130
O166        O  0.15016053  0.42841601  0.78256136    -2.47250
O167        O  0.20294210  0.43037579  0.78845923    -0.79270
O168        O  0.14396113  0.47711080  0.84809617    -0.71470
O169        O  0.20495942  0.38296402  0.85612039    -2.32420
O170        O  0.20102833  0.48091955  0.85468001    -2.28630
O171        O  0.14867641  0.37937843  0.85341728    -0.73230
H172        H  0.13443269  0.42832491  0.94580573     0.78770
H173        H  0.21704261  0.36443232  0.85691847     0.79860
H174        H  0.14043791  0.42818719  0.75331836     0.82080
H175        H  0.21179757  0.50049330  0.85562531     0.79690
H176        H  0.17473813  0.32199898  0.96478882     0.42720
H177        H  0.16278420  0.31620608  0.80270261     0.41690
H178        H  0.17967562  0.38652215  0.68904454     0.41370
H179        H  0.16210885  0.46442884  0.68960425     0.39310
H180        H  0.20018588  0.03987041  0.78884162     0.42440
H181        H  0.19529107  0.03989613  0.92152616     0.37220
H182        H  0.15700595  0.47300906  0.01509939     0.43340
H183        H  0.15522065  0.39703118  0.01367775     0.39750
H184        H  0.16667445  0.50209162  0.69326220     0.44670
H185        H  0.16442944  0.04687237  0.93011502     0.43400
H186        H  0.17952233  0.37276399  0.01990305     0.43530
H187        H  0.19220359  0.31525657  0.78129240     0.43890
C188        C  0.17712343  0.17225420  0.85834051    -0.02180
C189        C  0.17761578  0.42940656  0.35013523    -0.02180
C190        C  0.42920704  0.17829464  0.34841577    -0.02180
O191        O  0.49035176  0.11671868  0.66767571    -0.74980
O192        O  0.01382820  0.09275968  0.72711961    -0.53890
C193        C  0.99476510  0.11074637  0.71063044     0.78750
O194        O  0.48978141  0.99343067  0.53307220    -0.59580
O195        O  0.01905427  0.01365764  0.47806675    -0.52610
C196        C  0.49831452  0.99641450  0.49162952     0.70760
O197        O  0.48682621  0.99759436  0.67858438    -0.74140
O198        O  0.01045860  0.02299645  0.73651605    -0.54700
C199        C  0.99146482  0.00405214  0.72149552     0.76770
O200        O  0.50141215  0.11883361  0.51686395    -0.59280
O201        O  0.02440755  0.08740950  0.46384863    -0.52400
C202        C  0.00670379  0.10961467  0.47465052     0.73360
Zr203      Zr  0.01469851  0.10630992  0.59721803     2.54710
O204        O  0.46784135  0.12409148  0.58646525    -0.79850
O205        O  0.02789061  0.16294965  0.60412940    -0.93270
Zr206      Zr  0.00600755  0.01131429  0.60448590     2.64680
O207        O  0.45691910  0.02042218  0.60459970    -0.98220
O208        O  0.00418301  0.45221496  0.60305931    -0.80280
O209        O  0.00780843  0.06025468  0.64578033    -0.83640
O210        O  0.01063553  0.05728753  0.55548028    -2.18350
O211        O  0.11185817  0.11023189  0.53900921    -0.67030
O212        O  0.08721187  0.08633149  0.48037728    -0.51590
C213        C  0.10658696  0.10447772  0.49614657     0.71740
O214        O  0.09585437  0.99139669  0.68901125    -0.59940
O215        O  0.06879827  0.01587253  0.74423573    -0.51910
C216        C  0.08824723  0.99709820  0.73143677     0.73540
O217        O  0.10665158  0.98778627  0.53074813    -0.71330
O218        O  0.08514932  0.01620218  0.47323212    -0.50010
C219        C  0.10327498  0.99575342  0.48749263     0.74930
O220        O  0.10922227  0.10374971  0.69139989    -0.66660
O221        O  0.07824593  0.08525898  0.74409588    -0.53860
C222        C  0.10065229  0.09992979  0.73350459     0.73310
Zr223      Zr  0.09328653  0.09463756  0.61226929     2.77540
O224        O  0.14238662  0.08557561  0.61415064    -0.97410
O225        O  0.09816356  0.15272209  0.62561576    -0.78230
Zr226      Zr  0.08496476  0.99981073  0.60725813     2.70070
O227        O  0.13251865  0.98395889  0.61420303    -0.79480
O228        O  0.07295994  0.44267294  0.60175251    -0.98560
Zr229      Zr  0.04578111  0.05421112  0.69591720     2.21500
Zr230      Zr  0.05227912  0.05161456  0.51364523     2.11130
O231        O  0.09079364  0.04767161  0.56431179    -2.47250
O232        O  0.08786310  0.04696074  0.65526565    -0.79270
O233        O  0.05657208  0.10078203  0.55810517    -0.71470
O234        O  0.04421746  0.00474155  0.65213900    -2.32420
O235        O  0.05144651  0.10247512  0.65129531    -2.28630
O236        O  0.04632132  0.00394998  0.55909430    -0.73230
H237        H  0.49523497  0.05836286  0.53466391     0.78770
H238        H  0.04188872  0.48615170  0.67214977     0.79860
H239        H  0.10756058  0.04648575  0.54665669     0.82080
H240        H  0.05203665  0.12130793  0.67154862     0.79690
H241        H  0.00517829  0.44552333  0.63616517     0.42720
H242        H  0.06413221  0.44027293  0.57086824     0.41690
H243        H  0.14277235  0.00426551  0.60881727     0.41370
H244        H  0.14664925  0.07211593  0.58624465     0.39310
H245        H  0.07970408  0.16083456  0.63339005     0.42440
H246        H  0.01828039  0.17101765  0.63243477     0.37220
H247        H  0.45758450  0.10380459  0.58069958     0.43340
H248        H  0.45334775  0.03391514  0.57676206     0.39750
H249        H  0.15051236  0.10700990  0.60736365     0.44670
H250        H  0.51852509  0.17366980  0.57783039     0.43400
H251        H  0.44886460  0.99903764  0.59697729     0.43530
H252        H  0.09062603  0.43125615  0.59814132     0.43890
O253        O  0.49813104  0.36070271  0.01873441    -0.74980
O254        O  0.01978709  0.32949332  0.96405875    -0.53890
C255        C  0.00210870  0.35076681  0.97661470     0.78750
O256        O  0.11439213  0.36336705  0.16993890    -0.59580
O257        O  0.09005662  0.34052434  0.22946273    -0.52610
C258        C  0.10932407  0.35845642  0.21367362     0.70760
O259        O  0.09810948  0.36272143  0.00991441    -0.74140
O260        O  0.07237342  0.33498239  0.95686108    -0.54700
C261        C  0.08998251  0.35631122  0.96807527     0.76770
O262        O  0.49845081  0.36318027  0.16966602    -0.59280
O263        O  0.02455072  0.34122452  0.22735163    -0.52400
C264        C  0.00414298  0.35766006  0.21199105     0.73360
Zr265      Zr  0.01632684  0.35087492  0.09633806     2.54710
O266        O  0.02426643  0.40903829  0.09445421    -0.79850
O267        O  0.46719519  0.35972663  0.09981047    -0.93270
Zr268      Zr  0.09570099  0.34942110  0.09259089     2.64680
O269        O  0.10359426  0.40769400  0.09080710    -0.98220
O270        O  0.14440694  0.34217277  0.08000262    -0.80280
O271        O  0.05478964  0.34922992  0.04880007    -0.83640
O272        O  0.05686537  0.35338364  0.14152340    -2.18350
O273        O  0.50286097  0.24752008  0.19190794    -0.67030
O274        O  0.02673254  0.27734234  0.24414073    -0.51590
C275        C  0.00745458  0.25726802  0.23390949     0.71740
O276        O  0.10865129  0.24075700  0.01536562    -0.59940
O277        O  0.08202454  0.26626774  0.96177965    -0.51910
C278        C  0.10175379  0.24750492  0.97321531     0.73540
O279        O  0.11693548  0.24852658  0.16751597    -0.71330
O280        O  0.09089465  0.27099806  0.22591078    -0.50010
C281        C  0.11096242  0.25386559  0.21023833     0.74930
O282        O  0.49317670  0.23870670  0.04322093    -0.66660
O283        O  0.01658278  0.26168797  0.98266472    -0.53860
C284        C  0.99726656  0.24453124  0.00029195     0.73310
Zr285      Zr  0.01616483  0.25447186  0.11106457     2.77540
O286        O  0.02314993  0.19597635  0.11487196    -0.97410
O287        O  0.46718403  0.24841726  0.12058624    -0.78230
Zr288      Zr  0.09456731  0.25390481  0.09492670     2.70070
O289        O  0.08708002  0.19582804  0.10339910    -0.79480
O290        O  0.14289552  0.24223426  0.08335192    -0.98560
Zr291      Zr  0.05127232  0.29825918  0.00981985     2.21500
Zr292      Zr  0.05775672  0.30597742  0.18979899     2.11130
O293        O  0.05781035  0.25484658  0.14998590    -2.47250
O294        O  0.05260727  0.25037823  0.05592532    -0.79270
O295        O  0.01660674  0.30543797  0.14738333    -0.71470
O296        O  0.09414880  0.30072789  0.04857994    -2.32420
O297        O  0.01296471  0.30014022  0.06036794    -2.28630
O298        O  0.09656223  0.30285245  0.13923113    -0.73230
H299        H  0.05727272  0.37302173  0.16011077     0.78770
H300        H  0.10920679  0.30081476  0.02673650     0.79860
H301        H  0.05887382  0.23688464  0.17144830     0.82080
H302        H  0.49588756  0.30001335  0.04383733     0.79690
H303        H  0.14944065  0.32376770  0.10031985     0.42720
H304        H  0.15271771  0.25923221  0.10111249     0.41690
H305        H  0.07845785  0.18894980  0.07373992     0.41370
H306        H  0.02524752  0.19126955  0.14857621     0.39310
H307        H  0.46038195  0.27095798  0.12394791     0.42440
H308        H  0.45924727  0.34266554  0.07954856     0.37220
H309        H  0.03552044  0.41230343  0.06605491     0.43340
H310        H  0.11701207  0.41214396  0.11573520     0.39750
H311        H  0.50527728  0.18652331  0.10657189     0.44670
H312        H  0.46388815  0.38030973  0.08307047     0.43400
H313        H  0.11397480  0.41124107  0.06156534     0.43530
H314        H  0.14639685  0.22186725  0.10052273     0.43890
O315        O  0.35369929  0.49072482  0.00890294    -0.74980
O316        O  0.38779364  0.01571889  0.04812161    -0.53890
C317        C  0.37879609  0.99579233  0.01619838     0.78750
O318        O  0.26312123  0.10315680  0.99381488    -0.59580
O319        O  0.22837075  0.08006736  0.03567326    -0.52610
C320        C  0.23781110  0.09649734  0.00043349     0.70760
O321        O  0.35064105  0.07999657  0.00110097    -0.74140
O322        O  0.38378833  0.08893130  0.05231276    -0.54700
C323        C  0.37286915  0.09386098  0.01247448     0.76770
O324        O  0.27198945  0.49165150  0.99144846    -0.59280
O325        O  0.23526583  0.01039054  0.03332053    -0.52400
C326        C  0.24672350  0.99553871  0.99779273     0.73360
Zr327      Zr  0.30969040  0.00151992  0.03796371     2.54710
O328        O  0.31509097  0.98525433  0.95637247    -0.79850
O329        O  0.30698321  0.44454102  0.05905296    -0.93270
Zr330      Zr  0.30708669  0.09687064  0.03263229     2.64680
O331        O  0.31195784  0.12184108  0.95609053    -0.98220
O332        O  0.31438347  0.15411852  0.04946287    -0.80280
O333        O  0.33474308  0.04962376  0.03547487    -0.83640
O334        O  0.28207139  0.04841794  0.03263384    -2.18350
O335        O  0.26071671  0.48979434  0.20015147    -0.67030
O336        O  0.22662658  0.01361842  0.15832994    -0.51590
C337        C  0.23545537  0.99555528  0.19258509     0.71740
O338        O  0.34599758  0.11047168  0.20252130    -0.59940
O339        O  0.38230126  0.08694936  0.16603826    -0.51910
C340        C  0.37161990  0.10560257  0.19805688     0.73540
O341        O  0.25873421  0.10786791  0.19407013    -0.71330
O342        O  0.22522219  0.08287556  0.15180613    -0.50010
C343        C  0.23390642  0.10093540  0.18587510     0.74930
O344        O  0.34964257  0.49580559  0.19988145    -0.66660
O345        O  0.38530528  0.01690873  0.15840792    -0.53860
C346        C  0.37489106  0.00054110  0.19197473     0.73310
Zr347      Zr  0.30514372  0.00355010  0.16994919     2.77540
O348        O  0.30532536  0.00331295  0.25521611    -0.97410
O349        O  0.30782514  0.44457124  0.16644943    -0.78230
Zr350      Zr  0.30363294  0.09857333  0.16536271     2.70070
O351        O  0.30076317  0.11043463  0.24873547    -0.79480
O352        O  0.30282322  0.15626069  0.14831804    -0.98560
Zr353      Zr  0.36168005  0.05148887  0.10469756     2.21500
Zr354      Zr  0.25104862  0.04734370  0.09728438     2.11130
O355        O  0.27804761  0.05023530  0.16656927    -2.47250
O356        O  0.33110624  0.05181087  0.17017272    -0.79270
O357        O  0.27866489  0.99928146  0.10125571    -0.71470
O358        O  0.33382957  0.09994143  0.10129527    -2.32420
O359        O  0.33586559  0.00217005  0.10593412    -2.28630
O360        O  0.27661389  0.09734030  0.09714547    -0.73230
H361        H  0.27300852  0.04793559  0.00295383     0.78770
H362        H  0.34495343  0.11922760  0.10228474     0.79860
H363        H  0.26682283  0.05014124  0.19432761     0.82080
H364        H  0.34773077  0.48346907  0.10713551     0.79690
H365        H  0.33302478  0.15843230  0.03772566     0.42720
H366        H  0.28386142  0.16297081  0.15535099     0.41690
H367        H  0.29997450  0.08884677  0.26368471     0.41370
H368        H  0.29066965  0.01851830  0.26490610     0.39310
H369        H  0.29029819  0.43766668  0.15271004     0.42440
H370        H  0.32330263  0.43987089  0.07795799     0.37220
H371        H  0.31763095  0.00585009  0.93922627     0.43340
H372        H  0.30326004  0.10646374  0.93402553     0.39750
H373        H  0.29861657  0.48156789  0.26415645     0.44670
H374        H  0.31022724  0.43277929  0.02927079     0.43400
H375        H  0.29983421  0.14108688  0.95661670     0.43530
H376        H  0.31383053  0.16635426  0.17339473     0.43890
C377        C  0.29832199  0.30149745  0.09695527    -0.02180
C378        C  0.05073423  0.30006173  0.60762951    -0.02180
O379        O  0.12259213  0.23680579  0.43642595    -0.74980
O380        O  0.14750598  0.20825383  0.48922988    -0.53890
C381        C  0.12843086  0.22899319  0.47866995     0.78750
O382        O  0.11930520  0.11390974  0.26574009    -0.59580
O383        O  0.14280699  0.14244448  0.21093786    -0.52610
C384        C  0.12428651  0.12187484  0.22291733     0.70760
O385        O  0.11774348  0.11516814  0.42000775    -0.74140
O386        O  0.14453793  0.13685827  0.47758680    -0.54700
C387        C  0.12420550  0.11991451  0.46257576     0.76770
O388        O  0.12306550  0.24375927  0.28600898    -0.59280
O389        O  0.14432590  0.21567470  0.22682595    -0.52400
C390        C  0.12758652  0.23711887  0.24314042     0.73360
Zr391      Zr  0.13818672  0.22237701  0.35770105     2.54710
O392        O  0.08878317  0.21818645  0.35970531    -0.79850
O393        O  0.13979624  0.28123470  0.36388178    -0.93270
Zr394      Zr  0.13563890  0.12746254  0.34522411     2.64680
O395        O  0.08617563  0.12868947  0.34459748    -0.98220
O396        O  0.13564857  0.06864114  0.34527130    -0.80280
O397        O  0.13760011  0.17296208  0.39724294    -0.83640
O398        O  0.13508302  0.17697384  0.30560881    -2.18350
O399        O  0.23272972  0.23383912  0.26806905    -0.67030
O400        O  0.20649253  0.20949378  0.21256827    -0.51590
C401        C  0.22628258  0.22818394  0.22528087     0.71740
O402        O  0.23220132  0.10729679  0.42675131    -0.59940
O403        O  0.20897689  0.13466540  0.48432773    -0.51910
C404        C  0.22725850  0.11389727  0.47059506     0.73540
O405        O  0.22285702  0.10828249  0.26403009    -0.71330
O406        O  0.19864796  0.13630973  0.20912100    -0.50010
C407        C  0.21602888  0.11480724  0.22142261     0.74930
O408        O  0.23696086  0.23450778  0.41853457    -0.66660
O409        O  0.21375608  0.20756256  0.47599684    -0.53860
C410        C  0.23237236  0.22740075  0.46108283     0.73310
Zr411      Zr  0.21789592  0.21860265  0.34614530     2.77540
O412        O  0.26742133  0.21512000  0.34776726    -0.97410
O413        O  0.21629743  0.27756662  0.34519520    -0.78230
Zr414      Zr  0.21568291  0.12304511  0.34679162     2.70070
O415        O  0.26505454  0.12526364  0.33929563    -0.79480
O416        O  0.21726958  0.06407156  0.34862016    -0.98560
Zr417      Zr  0.17846186  0.17202927  0.44176333     2.21500
Zr418      Zr  0.17485356  0.17506673  0.25756841     2.11130
O419        O  0.21656613  0.17097776  0.30036298    -2.47250
O420        O  0.21777890  0.17085450  0.39240520    -0.79270
O421        O  0.17645443  0.22254197  0.30573317    -0.71470
O422        O  0.17560130  0.12413608  0.39285033    -2.32420
O423        O  0.17972774  0.22115311  0.39826322    -2.28630
O424        O  0.17551012  0.12525258  0.30014932    -0.73230
H425        H  0.11871785  0.17836878  0.28714165     0.78770
H426        H  0.17490556  0.10481741  0.41177591     0.79860
H427        H  0.23205266  0.17023445  0.27943504     0.82080
H428        H  0.18091076  0.23987969  0.41864424     0.79690
H429        H  0.13253347  0.06237328  0.37822358     0.42720
H430        H  0.21524161  0.05709613  0.31564308     0.41690
H431        H  0.27110120  0.13793625  0.36687492     0.41370
H432        H  0.27205419  0.19607346  0.32802817     0.39310
H433        H  0.20702225  0.28285732  0.31552502     0.42440
H434        H  0.14724930  0.28571655  0.39537587     0.37220
H435        H  0.08505597  0.19808930  0.37737296     0.43340
H436        H  0.08148830  0.14272838  0.31787691     0.39750
H437        H  0.27387373  0.23409363  0.32984257     0.44670
H438        H  0.12048052  0.28808997  0.36601371     0.43400
H439        H  0.08068075  0.10661236  0.33462728     0.43530
H440        H  0.23641413  0.05878405  0.35628004     0.43890
O441        O  0.36072498  0.24085922  0.67369471    -0.74980
O442        O  0.33576228  0.26490118  0.73224061    -0.53890
C443        C  0.35484810  0.24636000  0.71635608     0.78750
O444        O  0.35629090  0.36797539  0.53600395    -0.59580
O445        O  0.33292383  0.34044072  0.47908249    -0.52610
C446        C  0.35137670  0.36048173  0.49359543     0.70760
O447        O  0.35730361  0.36562611  0.68854260    -0.74140
O448        O  0.33575491  0.33500041  0.74361816    -0.54700
C449        C  0.35341864  0.35657696  0.73114338     0.76770
O450        O  0.35948901  0.24338042  0.52274672    -0.59280
O451        O  0.33341292  0.26937699  0.46867292    -0.52400
C452        C  0.35347750  0.25049716  0.48031917     0.73360
Zr453      Zr  0.34257919  0.25623999  0.60107331     2.54710
O454        O  0.39200631  0.26021071  0.59757408    -0.79850
O455        O  0.34261014  0.19733676  0.59912475    -0.93270
Zr456      Zr  0.34042176  0.35115738  0.61030942     2.64680
O457        O  0.39007567  0.35034910  0.61169427    -0.98220
O458        O  0.33612225  0.41001099  0.61269752    -0.80280
O459        O  0.34251121  0.30230544  0.65186832    -0.83640
O460        O  0.34132920  0.30490835  0.56011057    -2.18350
O461        O  0.24477529  0.23712528  0.53752588    -0.67030
O462        O  0.26791255  0.26426404  0.48014512    -0.51590
C463        C  0.24965165  0.24391259  0.49494312     0.71740
O464        O  0.25550148  0.36961531  0.68909090    -0.59940
O465        O  0.27890746  0.34238319  0.74591656    -0.51910
C466        C  0.26264436  0.36477495  0.73205168     0.73540
O467        O  0.24562680  0.36450701  0.52884384    -0.71330
O468        O  0.26912186  0.33786492  0.47143318    -0.50010
C469        C  0.25077262  0.35840882  0.48517537     0.74930
O470        O  0.24947436  0.23687614  0.68828798    -0.66660
O471        O  0.27244904  0.26387984  0.74508877    -0.53860
C472        C  0.25487959  0.24219683  0.73152957     0.73310
Zr473      Zr  0.26311332  0.25351291  0.61049650     2.77540
O474        O  0.21363093  0.25089176  0.61723350    -0.97410
O475        O  0.27003431  0.19506328  0.60702068    -0.78230
Zr476      Zr  0.25969217  0.34796286  0.60918835     2.70070
O477        O  0.21380076  0.32685869  0.61953848    -0.79480
O478        O  0.23490318  0.39912159  0.60353544    -0.98560
Zr479      Zr  0.30274341  0.30156903  0.70000551     2.21500
Zr480      Zr  0.30057513  0.30291996  0.51517433     2.11130
O481        O  0.26068549  0.30067472  0.56340069    -2.47250
O482        O  0.26110343  0.30098993  0.65691011    -0.79270
O483        O  0.30156783  0.25389246  0.55896661    -0.71470
O484        O  0.30054406  0.35046124  0.65464690    -2.32420
O485        O  0.30412359  0.25360963  0.65228410    -2.28630
O486        O  0.30003610  0.35113713  0.56334360    -0.73230
H487        H  0.35737141  0.30549243  0.54052114     0.78770
H488        H  0.30205312  0.36987374  0.67348982     0.79860
H489        H  0.24437740  0.30028703  0.54466097     0.82080
H490        H  0.30499445  0.23428162  0.67115340     0.79690
H491        H  0.32156741  0.41502331  0.58998690     0.42720
H492        H  0.24378668  0.41211698  0.57878316     0.41690
H493        H  0.21103697  0.32605977  0.65381870     0.41370
H494        H  0.20653868  0.26323017  0.59028753     0.39310
H495        H  0.27456755  0.19031947  0.57390499     0.42440
H496        H  0.33708192  0.19077585  0.63103634     0.37220
H497        H  0.39653345  0.27849137  0.61876145     0.43340
H498        H  0.39562988  0.33743326  0.58390918     0.39750
H499        H  0.20901715  0.22800144  0.61022977     0.44670
H500        H  0.36209433  0.19122464  0.59685433     0.43400
H501        H  0.39557851  0.37284343  0.60430696     0.43530
H502        H  0.21667380  0.39363050  0.59114015     0.43890
C503        C  0.30475930  0.05238044  0.61020246    -0.02180
C504        C  0.04864438  0.05080931  0.09445626    -0.02180
C505        C  0.11708515  0.08687808  0.15037523    -0.11960
C506        C  0.10635636  0.10716010  0.18577357     0.05050
C507        C  0.07793857  0.11208830  0.18679036    -0.07240
C508        C  0.06109640  0.09433802  0.15620700    -0.07990
C509        C  0.07100542  0.07139587  0.12269703    -0.02540
C510        C  0.10012957  0.07010353  0.11792919     0.04280
N511        N  0.11330169  0.05338593  0.07998463     0.66780
H512        H  0.13899779  0.08419740  0.14763688     0.15680
H513        H  0.03947680  0.09831622  0.15929194     0.15390
N514        N  0.06575888  0.13571681  0.21786237     0.74490
O515        O  0.11043179  0.06395385  0.03898220    -0.38960
O516        O  0.13302071  0.03458796  0.08833722    -0.38900
O517        O  0.07742663  0.16251690  0.22527382    -0.39610
O518        O  0.04174529  0.13183433  0.23278251    -0.39680
C519        C  0.26919746  0.11320111  0.52050377    -0.11960
C520        C  0.24496432  0.09786766  0.50777858     0.05050
C521        C  0.23869312  0.06831892  0.53099350    -0.07240
C522        C  0.25654953  0.05592156  0.56644607    -0.07990
C523        C  0.28182789  0.07066736  0.57890957    -0.02540
C524        C  0.28760717  0.10003229  0.55331708     0.04280
N525        N  0.31281603  0.11680375  0.55802256     0.66780
H526        H  0.27465560  0.13556687  0.50307066     0.15680
H527        H  0.25066696  0.03362589  0.58260757     0.15390
N528        N  0.21487409  0.04985255  0.51827831     0.74490
O529        O  0.33252722  0.10933357  0.53157153    -0.38960
O530        O  0.31299414  0.14379768  0.57895927    -0.38900
O531        O  0.20472842  0.05211699  0.47793572    -0.39610
O532        O  0.20530397  0.02894297  0.54588779    -0.39680
C533        C  0.11059905  0.27952716  0.51873381    -0.12200
C534        C  0.11121714  0.24548958  0.51634674     0.05050
C535        C  0.09153147  0.22867627  0.54322127    -0.07240
C536        C  0.07253067  0.24580692  0.57214942    -0.07990
C537        C  0.07179688  0.28024549  0.57507446    -0.02540
C538        C  0.09166715  0.29678011  0.54702403     0.04280
N539        N  0.09318485  0.33147516  0.54679008     0.66780
H540        H  0.12473527  0.29315555  0.49730834     0.15680
H541        H  0.05850596  0.23158220  0.59262700     0.15390
N542        N  0.08965073  0.19410662  0.53971000     0.74490
O543        O  0.11337704  0.34521748  0.56547278    -0.38960
O544        O  0.07871031  0.34731303  0.51858308    -0.38900
O545        O  0.11089103  0.17690456  0.54049095    -0.39610
O546        O  0.06675608  0.18058681  0.53573824    -0.39680
C547        C  0.23210165  0.26208958  0.15292155    -0.11960
C548        C  0.24379305  0.24427575  0.18937893     0.05050
C549        C  0.27234119  0.24552003  0.19512437    -0.07240
C550        C  0.28813430  0.26506663  0.16561484    -0.07990
C551        C  0.27699016  0.28320396  0.12825480    -0.02540
C552        C  0.24793782  0.28177480  0.12279557     0.04280
N553        N  0.23337955  0.30153784  0.09025434     0.66780
H554        H  0.21013092  0.26214941  0.14934685     0.15680
H555        H  0.30996749  0.26525981  0.17089926     0.15390
N556        N  0.28593807  0.22588586  0.22934377     0.74490
O557        O  0.21617942  0.28817428  0.06376294    -0.38960
O558        O  0.23023299  0.33125538  0.09962854    -0.38900
O559        O  0.27827976  0.19711876  0.23649363    -0.39610
O560        O  0.30779840  0.23559726  0.24775297    -0.39680
C561        C  0.37616562  0.15198087  0.25345028    -0.11960
C562        C  0.38828762  0.12410774  0.23333127     0.05050
C563        C  0.41387548  0.11434339  0.25048379    -0.07240
C564        C  0.42570511  0.13142903  0.28830202    -0.07990
C565        C  0.41302867  0.15871862  0.31045237    -0.02540
C566        C  0.38803988  0.16987125  0.29000569     0.04280
N567        N  0.37449243  0.19969897  0.30372402     0.66780
H568        H  0.35717665  0.16098863  0.23931166     0.15680
H569        H  0.44572924  0.12367044  0.29909558     0.15390
N570        N  0.42884368  0.08831430  0.22890296     0.74490
O571        O  0.34878760  0.20090873  0.30480352    -0.38960
O572        O  0.38754791  0.22585112  0.30829694    -0.38900
O573        O  0.43453671  0.08978217  0.18591146    -0.39610
O574        O  0.44139697  0.06814942  0.25396354    -0.39680
C575        C  0.47035455  0.22018815  0.34218436    -0.11960
C576        C  0.44725770  0.20519979  0.32008866     0.05050
C577        C  0.44414157  0.21467239  0.27155833    -0.07240
C578        C  0.46177444  0.23684660  0.25091045    -0.07990
C579        C  0.48713546  0.24463144  0.26944465    -0.02540
C580        C  0.99143569  0.23659788  0.31696377     0.04280
N581        N  0.01718648  0.24230358  0.33946615     0.66780
H582        H  0.47418196  0.21500496  0.37859826     0.15680
H583        H  0.45695332  0.24436358  0.21561384     0.15390
N584        N  0.42598332  0.20039182  0.23841037     0.74490
O585        O  0.01856718  0.24313711  0.38352656    -0.38960
O586        O  0.03907758  0.24084022  0.31627597    -0.38900
O587        O  0.40767084  0.21814129  0.22099824    -0.39610
O588        O  0.43512359  0.17740085  0.21347352    -0.39680
C589        C  0.46079826  0.11956095  0.44344538    -0.11960
C590        C  0.48879944  0.12398124  0.43767134     0.05050
C591        C  0.99775480  0.14043394  0.39715447    -0.07240
C592        C  0.47798137  0.15315885  0.36596855    -0.07990
C593        C  0.44948193  0.15409730  0.37607305    -0.02540
C594        C  0.44142087  0.13157184  0.41153170     0.04280
N595        N  0.41602989  0.11457174  0.41022270     0.66780
H596        H  0.45408461  0.10399535  0.47163955     0.15680
H597        H  0.98528032  0.16309409  0.33345913     0.15390
N598        N  0.02626185  0.14632656  0.38796062     0.74490
O599        O  0.40785289  0.10323049  0.37175867    -0.38960
O600        O  0.40702605  0.10180814  0.44726155    -0.38900
O601        O  0.04385636  0.14297398  0.41961557    -0.39610
O602        O  0.03352921  0.15903583  0.34984870    -0.39680
C603        C  0.41574497  0.22621136  0.40573546    -0.11960
C604        C  0.40862159  0.19547760  0.38600291     0.05050
C605        C  0.38156042  0.18430999  0.40036882    -0.07240
C606        C  0.36362655  0.20488043  0.42584337    -0.07990
C607        C  0.37126936  0.23497419  0.44348021    -0.02540
C608        C  0.39821182  0.24519532  0.43470870     0.04280
N609        N  0.40850745  0.27456439  0.45564613     0.66780
H610        H  0.43528664  0.23659687  0.39927127     0.15680
H611        H  0.34364125  0.19578319  0.43532187     0.15390
N612        N  0.37151985  0.15176818  0.39512718     0.74490
O613        O  0.43336839  0.27681487  0.46620801    -0.38960
O614        O  0.39303085  0.29856481  0.46309516    -0.38900
O615        O  0.36434998  0.13749674  0.43214173    -0.39610
O616        O  0.35910110  0.14375358  0.35841546    -0.39680
C617        C  0.14114538  0.42458914  0.28742845    -0.11960
C618        C  0.16008922  0.40772802  0.31580709     0.05050
C619        C  0.16305130  0.37380613  0.30653592    -0.07240
C620        C  0.14588854  0.35845360  0.27367270    -0.07990
C621        C  0.12630895  0.37582092  0.24815180    -0.02540
C622        C  0.12355674  0.40953354  0.25569031     0.04280
N623        N  0.10257181  0.42898915  0.23373170     0.66780
H624        H  0.13900121  0.45033052  0.29211965     0.15680
H625        H  0.14835381  0.33266235  0.26715044     0.15390
N626        N  0.18399688  0.35456750  0.32735722     0.74490
O627        O  0.09694796  0.45691628  0.24955731    -0.38960
O628        O  0.08905634  0.41860664  0.19939560    -0.38900
O629        O  0.17737905  0.33243343  0.35537559    -0.39610
O630        O  0.20710232  0.35307229  0.30798477    -0.39680
C631        C  0.21126688  0.43371016  0.28165624    -0.11960
C632        C  0.19359395  0.45082411  0.31236580     0.05050
C633        C  0.18690453  0.48325818  0.29769322    -0.07240
C634        C  0.19894701  0.99696155  0.25674724    -0.07990
C635        C  0.21693002  0.47924532  0.22777375    -0.02540
C636        C  0.22254752  0.44688877  0.24079637     0.04280
N637        N  0.23943329  0.42647122  0.21192996     0.66780
H638        H  0.21561732  0.40861200  0.28845995     0.15680
H639        H  0.19452294  0.02198217  0.24813111     0.15390
N640        N  0.16686011  0.00240502  0.32155594     0.74490
O641        O  0.25527916  0.40601259  0.23016579    -0.38960
O642        O  0.23616981  0.42621645  0.16824103    -0.38900
O643        O  0.17427463  0.02065255  0.35461700    -0.39610
O644        O  0.14481870  0.00875632  0.30096398    -0.39680
C645        C  0.14994864  0.98508729  0.45358134    -0.11960
C646        C  0.12160445  0.48026027  0.45170360     0.05050
C647        C  0.11148722  0.45845333  0.41803903    -0.07240
C648        C  0.12953515  0.44343919  0.38626857    -0.07990
C649        C  0.15817792  0.44946430  0.38475284    -0.02540
C650        C  0.16825854  0.46998848  0.42146542     0.04280
N651        N  0.19695916  0.97412822  0.42935426     0.66780
H652        H  0.15806574  0.00067085  0.48079705     0.15680
H653        H  0.12035771  0.42508460  0.36471080     0.15390
N654        N  0.08330277  0.44877400  0.41795711     0.74490
O655        O  0.21265553  0.98290484  0.39680661    -0.38960
O656        O  0.20624339  0.47222183  0.47034312    -0.38900
O657        O  0.06451943  0.46962651  0.42097557    -0.39610
O658        O  0.07705614  0.41950286  0.41042537    -0.39680
C659        C  0.20485517  0.37358313  0.45285192    -0.11960
C660        C  0.23334350  0.37539420  0.44890709     0.05050
C661        C  0.24398329  0.39518155  0.41281879    -0.07240
C662        C  0.22608425  0.41191783  0.38226344    -0.07990
C663        C  0.19717165  0.40895928  0.38390570    -0.02540
C664        C  0.18691147  0.38952005  0.42169350     0.04280
N665        N  0.15831796  0.38725975  0.43184631     0.66780
H666        H  0.19619532  0.35939870  0.48100867     0.15680
H667        H  0.23553016  0.42828646  0.35796179     0.15390
N668        N  0.27281880  0.40045788  0.40812708     0.74490
O669        O  0.14256003  0.37279399  0.40400882    -0.38960
O670        O  0.14978845  0.39421371  0.47242622    -0.38900
O671        O  0.28916879  0.37681104  0.40831291    -0.39610
O672        O  0.28167523  0.42815586  0.39727459    -0.39680
C673        C  0.15047287  0.11842023  0.83450111    -0.11960
C674        C  0.15761053  0.15128966  0.82498428     0.05050
C675        C  0.14253856  0.16628503  0.78801310    -0.07240
C676        C  0.12410055  0.14868312  0.76094027    -0.07990
C677        C  0.11754429  0.11647593  0.77004975    -0.02540
C678        C  0.13001962  0.10133450  0.80889860     0.04280
N679        N  0.12202647  0.06931813  0.82360573     0.66780
H680        H  0.15926402  0.10639929  0.86425303     0.15680
H681        H  0.11417549  0.16095920  0.73216603     0.15390
N682        N  0.14434053  0.20006557  0.77782497     0.74490
O683        O  0.13754855  0.05280126  0.84910998    -0.38960
O684        O  0.09792471  0.05959603  0.81813110    -0.38900
O685        O  0.15673486  0.20841356  0.74106024    -0.39610
O686        O  0.12553890  0.21832108  0.79299195    -0.39680
C687        C  0.13598143  0.24727656  0.90901765    -0.11960
C688        C  0.11694032  0.23049664  0.93624768     0.05050
C689        C  0.11585537  0.19657798  0.93385381    -0.07240
C690        C  0.13436974  0.18017039  0.90537279    -0.07990
C691        C  0.15591885  0.19592556  0.88120880    -0.02540
C692        C  0.15552416  0.23070507  0.88135709     0.04280
N693        N  0.17468550  0.25007196  0.85600643     0.66780
H694        H  0.13653792  0.27353894  0.91110192     0.15680
H695        H  0.13354093  0.15397360  0.90598107     0.15390
N696        N  0.09790195  0.17816186  0.96350853     0.74490
O697        O  0.17448113  0.25013606  0.81195322    -0.38960
O698        O  0.18668739  0.27290833  0.87688299    -0.38900
O699        O  0.10488827  0.15038582  0.97758731    -0.39610
O700        O  0.07539195  0.18981492  0.97694135    -0.39680
C701        C  0.20109057  0.13457410  0.97975588    -0.11960
C702        C  0.21889209  0.11031955  0.96483840     0.05050
C703        C  0.22287268  0.10581661  0.91594187    -0.07240
C704        C  0.20859100  0.12566495  0.88393371    -0.07990
C705        C  0.19103167  0.15118034  0.89825822    -0.02540
C706        C  0.18853449  0.15607485  0.94844907     0.04280
N707        N  0.17640288  0.18424557  0.96995340     0.66780
H708        H  0.19936548  0.13938597  0.01700031     0.15680
H709        H  0.21145773  0.12141432  0.84682309     0.15390
N710        N  0.24144866  0.08151640  0.89796451     0.74490
O711        O  0.16024896  0.18056205  0.00401018    -0.38960
O712        O  0.18743064  0.21157587  0.96473999    -0.38900
O713        O  0.24700316  0.05655563  0.92143558    -0.39610
O714        O  0.25097315  0.08377976  0.85701538    -0.39680
C715        C  0.23861665  0.22795078  0.81457414    -0.11960
C716        C  0.23891154  0.22152701  0.76620975     0.05050
C717        C  0.22324127  0.19452861  0.75084966    -0.07240
C718        C  0.20518790  0.17877888  0.78140829    -0.07990
C719        C  0.20129536  0.18821506  0.82859534    -0.02540
C720        C  0.22167633  0.21023125  0.84603531     0.04280
N721        N  0.22716270  0.21356616  0.89495576     0.66780
H722        H  0.25226735  0.24620972  0.82839966     0.15680
H723        H  0.19453619  0.15811518  0.76714786     0.15390
N724        N  0.22629986  0.18125484  0.70466665     0.74490
O725        O  0.23822381  0.19006289  0.91565029    -0.38960
O726        O  0.23028086  0.24160379  0.91208615    -0.38900
O727        O  0.24933021  0.17099926  0.69147350    -0.39610
O728        O  0.20553213  0.17435846  0.68072783    -0.39680
C729        C  0.10416808  0.32621422  0.70032024    -0.11960
C730        C  0.09552762  0.35750861  0.71320715     0.05050
C731        C  0.07626826  0.37300362  0.68430010    -0.07240
C732        C  0.06434906  0.35569940  0.64648858    -0.07990
C733        C  0.06943768  0.32217249  0.63891280    -0.02540
C734        C  0.09160692  0.30844450  0.66466952     0.04280
N735        N  0.10057701  0.27559950  0.65809051     0.66780
H736        H  0.12012962  0.31439140  0.72008466     0.15680
H737        H  0.05082588  0.36873406  0.62377967     0.15390
N738        N  0.06924667  0.40637075  0.69187989     0.74490
O739        O  0.12443721  0.27030979  0.64321567    -0.38960
O740        O  0.08761163  0.25274626  0.67702087    -0.38900
O741        O  0.08755814  0.42667762  0.70141879    -0.39610
O742        O  0.04523643  0.41620264  0.68512702    -0.39680
C743        C  0.08363260  0.48050177  0.02115203    -0.11960
C744        C  0.08015813  0.49045622  0.97465315     0.05050
C745        C  0.06550256  0.01899570  0.96645986    -0.07240
C746        C  0.05466682  0.03660063  0.00451212    -0.07990
C747        C  0.06039593  0.02931361  0.05238258    -0.02540
C748        C  0.07432484  0.49918519  0.05964670     0.04280
N749        N  0.07769158  0.48568497  0.10539970     0.66780
H750        H  0.09539291  0.45879815  0.02780127     0.15680
H751        H  0.04103362  0.05555699  0.99447634     0.15390
N752        N  0.06275602  0.03167367  0.91989798     0.74490
O753        O  0.06782272  0.45817972  0.11436745    -0.38960
O754        O  0.09178414  0.49992473  0.13598528    -0.38900
O755        O  0.06011136  0.01286150  0.88520917    -0.39610
O756        O  0.06307194  0.06192213  0.91325682    -0.39680
C757        C  0.27926044  0.35487470  0.06125904    -0.11960
C758        C  0.28558335  0.32147195  0.05407682     0.05050
C759        C  0.28021753  0.30990187  0.00723501    -0.07240
C760        C  0.27183057  0.33113142  0.97153631    -0.07990
C761        C  0.26480618  0.36326353  0.98031774    -0.02540
C762        C  0.26798539  0.37499029  0.02643783     0.04280
N763        N  0.25834220  0.40671750  0.03933423     0.66780
H764        H  0.28133245  0.36549522  0.09563435     0.15680
H765        H  0.26700025  0.32098698  0.93745105     0.15390
N766        N  0.27676817  0.27665176  0.99564775     0.74490
O767        O  0.25355998  0.41388592  0.08149602    -0.38960
O768        O  0.25588428  0.42837636  0.00891676    -0.38900
O769        O  0.25351445  0.26468581  0.00282837    -0.39610
O770        O  0.29086832  0.26505249  0.96243028    -0.39680
C771        C  0.28170780  0.01806787  0.73576293    -0.11960
C772        C  0.26441240  0.49319814  0.72319584     0.05050
C773        C  0.26437043  0.48350251  0.67575728    -0.07240
C774        C  0.27779611  0.50220481  0.64121240    -0.07990
C775        C  0.29306342  0.03022322  0.65224168    -0.02540
C776        C  0.29815886  0.03404219  0.70258680     0.04280
N777        N  0.32156105  0.04980400  0.72252435     0.66780
H778        H  0.28379174  0.02368206  0.77266309     0.15680
H779        H  0.27730025  0.49363738  0.60534991     0.15390
N780        N  0.25515671  0.45188261  0.66334007     0.74490
O781        O  0.31890239  0.06560611  0.76032400    -0.38960
O782        O  0.34507215  0.04014477  0.71146835    -0.38900
O783        O  0.23171296  0.44240712  0.67518710    -0.39610
O784        O  0.27261222  0.43144860  0.64933500    -0.39680
C785        C  0.35075718  0.08112722  0.62643408    -0.11960
C786        C  0.32225998  0.07950644  0.63428536     0.05050
C787        C  0.31096395  0.10235044  0.66763152    -0.07240
C788        C  0.32870309  0.11985383  0.69709473    -0.07990
C789        C  0.35696645  0.11585268  0.69450739    -0.02540
C790        C  0.36808773  0.09857782  0.65620034     0.04280
N791        N  0.39696523  0.09651070  0.64871194     0.66780
H792        H  0.36030327  0.06787840  0.59813824     0.15680
H793        H  0.32021392  0.13479091  0.72493332     0.15390
N794        N  0.28229004  0.10364333  0.67887524     0.74490
O795        O  0.40797311  0.06922662  0.64131993    -0.38960
O796        O  0.41033591  0.12189656  0.64005945    -0.38900
O797        O  0.27481043  0.10462985  0.72120354    -0.39610
O798        O  0.26508117  0.11080675  0.64806557    -0.39680
C799        C  0.48335241  0.09866376  0.05647073    -0.11960
C800        C  0.49444126  0.11554701  0.01897141     0.05050
C801        C  0.02282029  0.11864693  0.01517481    -0.07240
C802        C  0.03960307  0.10111559  0.04534630    -0.07990
C803        C  0.02859888  0.07749908  0.07571451    -0.02540
C804        C  0.50001145  0.08047705  0.08615599     0.04280
N805        N  0.48717747  0.06611782  0.12608812     0.66780
H806        H  0.46146835  0.09866150  0.06175870     0.15680
H807        H  0.06145037  0.10244408  0.04017021     0.15390
N808        N  0.03476435  0.13760810  0.97866804     0.74490
O809        O  0.49357682  0.07567470  0.16656120    -0.38960
O810        O  0.46526764  0.05053986  0.12087458    -0.38900
O811        O  0.02497262  0.16502604  0.96860037    -0.39610
O812        O  0.05369089  0.12581815  0.95382086    -0.39680
C813        C  0.33126672  0.23165916  0.02299482    -0.11960
C814        C  0.35845012  0.24107414  0.02414108     0.05050
C815        C  0.36732817  0.26096938  0.06113431    -0.07240
C816        C  0.34748845  0.27575818  0.08984415    -0.07990
C817        C  0.31917993  0.27405147  0.07935972    -0.02540
C818        C  0.31199028  0.24526300  0.05366245     0.04280
N819        N  0.28730140  0.22701044  0.06107449     0.66780
H820        H  0.32524078  0.21254703  0.99897623     0.15680
H821        H  0.35475920  0.28913727  0.11969920     0.15390
N822        N  0.39576141  0.26730003  0.06946263     0.74490
O823        O  0.27741773  0.21104222  0.02732926    -0.38960
O824        O  0.28229625  0.21662234  0.10147075    -0.38900
O825        O  0.41245731  0.26924922  0.03590676    -0.39610
O826        O  0.40387855  0.27382426  0.11028595    -0.39680
C827        C  0.01387519  0.26095317  0.71657835    -0.11960
C828        C  0.49306883  0.24269322  0.69642860     0.05050
C829        C  0.49227228  0.24109668  0.64684802    -0.07240
C830        C  0.51262525  0.25737323  0.62020716    -0.07990
C831        C  0.03243338  0.27822714  0.64079876    -0.02540
C832        C  0.03139510  0.28035806  0.69118345     0.04280
N833        N  0.04461422  0.30442745  0.71930186     0.66780
H834        H  0.01544105  0.26309800  0.75424227     0.15680
H835        H  0.51168206  0.25564972  0.58245936     0.15390
N836        N  0.47047585  0.22504760  0.62271454     0.74490
O837        O  0.06048681  0.29486938  0.75106218    -0.38960
O838        O  0.03258667  0.33122663  0.72542777    -0.38900
O839        O  0.44609806  0.23127035  0.63380443    -0.39610
O840        O  0.47515553  0.21052855  0.58449754    -0.39680
C841        C  0.33759745  0.34387663  0.10937913    -0.11960
C842        C  0.31466361  0.32738007  0.12858918     0.05050
C843        C  0.30821715  0.33602069  0.17595653    -0.07240
C844        C  0.32740069  0.35237383  0.20378774    -0.07990
C845        C  0.35271565  0.36320221  0.18656215    -0.02540
C846        C  0.35705203  0.36028987  0.13762748     0.04280
N847        N  0.38138900  0.37229185  0.11600889     0.66780
H848        H  0.34183400  0.34121624  0.07232661     0.15680
H849        H  0.32187362  0.35726076  0.23986432     0.15390
N850        N  0.28164025  0.33149667  0.19590362     0.74490
O851        O  0.39419680  0.35474265  0.08695082    -0.38960
O852        O  0.38748170  0.40192021  0.11971996    -0.38900
O853        O  0.27926774  0.32112617  0.23718629    -0.39610
O854        O  0.26133139  0.34462439  0.17687294    -0.39680
C855        C  0.49764732  0.48526737  0.14344684    -0.11960
C856        C  0.50081315  0.48926325  0.19193747     0.05050
C857        C  0.52174734  0.01034483  0.20758586    -0.07240
C858        C  0.53833048  0.02632395  0.17565540    -0.07990
C859        C  0.03291167  0.02661046  0.12728422    -0.02540
C860        C  0.01291619  0.50370360  0.11102272     0.04280
N861        N  0.00785392  0.49815141  0.06215475     0.66780
H862        H  0.98242922  0.46856332  0.13038519     0.15680
H863        H  0.55483680  0.03989750  0.19067255     0.15390
N864        N  0.52536983  0.01846244  0.25592955     0.74490
O865        O  0.00786115  0.46947762  0.04640206    -0.38960
O866        O  0.99802678  0.52035687  0.03720127    -0.38900
O867        O  0.54796792  0.01286269  0.27516706    -0.39610
O868        O  0.50924001  0.03859740  0.27479286    -0.39680
C869        C  0.49052067  0.35599993  0.55865659    -0.11960
C870        C  0.49078073  0.34829052  0.51067921     0.05050
C871        C  0.50924003  0.32355489  0.49603975    -0.07240
C872        C  0.52798951  0.31022630  0.52726238    -0.07990
C873        C  0.02947298  0.31884069  0.57516308    -0.02540
C874        C  0.00817325  0.34046667  0.59100785     0.04280
N875        N  0.00218140  0.34520938  0.63959309     0.66780
H876        H  0.47563276  0.37330124  0.57173727     0.15680
H877        H  0.54047654  0.29103638  0.51286205     0.15390
N878        N  0.50868876  0.30981188  0.44988351     0.74490
O879        O  0.00233883  0.37372265  0.65596091    -0.38960
O880        O  0.98747785  0.32445110  0.65975228    -0.38900
O881        O  0.53075990  0.30578569  0.42770923    -0.39610
O882        O  0.48776000  0.29470128  0.43656920    -0.39680
C883        C  0.36160720  0.49383170  0.55348240    -0.11960
C884        C  0.35838670  0.49878883  0.50522804     0.05050
C885        C  0.33613565  0.01840089  0.49174866    -0.07240
C886        C  0.31901629  0.03308697  0.52531287    -0.07990
C887        C  0.32267718  0.03031825  0.57456775    -0.02540
C888        C  0.34430266  0.00852829  0.58769326     0.04280
N889        N  0.34982796  0.00074641  0.63531001     0.66780
H890        H  0.37787304  0.47809122  0.56521238     0.15680
H891        H  0.30271405  0.04707443  0.51052625     0.15390
N892        N  0.32973042  0.52331882  0.44359148     0.74490
O893        O  0.33475576  0.98042441  0.65559793    -0.38960
O894        O  0.37382472  0.00444133  0.65013074    -0.38900
O895        O  0.31619029  0.50202258  0.42204883    -0.39610
O896        O  0.33193669  0.05132726  0.42635643    -0.39680
C897        C  0.39455667  0.43527311  0.92055696    -0.11960
C898        C  0.41856732  0.44675228  0.89924147     0.05050
C899        C  0.43300049  0.47118163  0.92567743    -0.07240
C900        C  0.42056574  0.98734286  0.96418169    -0.07990
C901        C  0.39619722  0.47605672  0.98319379    -0.02540
C902        C  0.38502105  0.44725206  0.96352967     0.04280
N903        N  0.36469573  0.42891272  0.98824292     0.66780
H904        H  0.38406149  0.41458695  0.90597642     0.15680
H905        H  0.43056649  0.00798569  0.98021208     0.15390
N906        N  0.46105133  0.97806195  0.91769011     0.74490
O907        O  0.34765850  0.41183092  0.96618999    -0.38960
O908        O  0.36658555  0.42566024  0.03195173    -0.38900
O909        O  0.46745414  0.00560592  0.90219333    -0.39610
O910        O  0.47826102  0.96307532  0.94215358    -0.39680
C911        C  0.44074840  0.48180769  0.81683720    -0.11960
C912        C  0.44388347  0.44769062  0.81755045     0.05050
C913        C  0.45762132  0.43341548  0.77833050    -0.07240
C914        C  0.47402226  0.45261669  0.74998165    -0.07990
C915        C  0.47423691  0.98636175  0.75470539    -0.02540
C916        C  0.45456919  0.00120884  0.78403412     0.04280
N917        N  0.44577225  0.03424506  0.77721229     0.66780
H918        H  0.42651487  0.99358097  0.84037819     0.15680
H919        H  0.98627382  0.44093071  0.72302407     0.15390
N920        N  0.45502394  0.39988458  0.76570217     0.74490
O921        O  0.42184372  0.04249421  0.78851791    -0.38960
O922        O  0.46010424  0.05408467  0.75458043    -0.38900
O923        O  0.44159883  0.39270783  0.72955623    -0.39610
O924        O  0.97143376  0.37920776  0.78173036    -0.39680
C925        C  0.41082488  0.37319127  0.81909083    -0.11960
C926        C  0.40784897  0.40685380  0.82904411     0.05050
C927        C  0.38505726  0.42250677  0.80772427    -0.07240
C928        C  0.36703771  0.40504493  0.77859398    -0.07990
C929        C  0.37098744  0.37211100  0.76781562    -0.02540
C930        C  0.39382281  0.35622815  0.78749434     0.04280
N931        N  0.40197374  0.32418102  0.77236469     0.66780
H932        H  0.42818589  0.36008983  0.83220281     0.15680
H933        H  0.35023067  0.41788000  0.76255413     0.15390
N934        N  0.38039859  0.45662778  0.81296487     0.74490
O935        O  0.42679400  0.31604947  0.77271859    -0.38960
O936        O  0.38468893  0.30381085  0.75843036    -0.38900
O937        O  0.38394076  0.47465492  0.77796055    -0.39610
O938        O  0.36517019  0.46660442  0.84571639    -0.39680
C939        C  0.44069250  0.38165023  0.91334748    -0.11960
C940        C  0.45198931  0.40387139  0.88093313     0.05050
C941        C  0.48139901  0.40478654  0.87787316    -0.07240
C942        C  0.99695448  0.38502590  0.90734059    -0.07990
C943        C  0.48489372  0.36511601  0.94062118    -0.02540
C944        C  0.45646274  0.36257568  0.94292284     0.04280
N945        N  0.44323137  0.34080511  0.97501567     0.66780
H946        H  0.41889963  0.37877639  0.91566676     0.15680
H947        H  0.01899306  0.38678365  0.90615064     0.15390
N948        N  0.49674324  0.42511981  0.84677801     0.74490
O949        O  0.41953685  0.34698921  0.99002583    -0.38960
O950        O  0.45393717  0.31381804  0.98476917    -0.38900
O951        O  0.99816997  0.45521841  0.85432837    -0.39610
O952        O  0.51481858  0.41224113  0.82106707    -0.39680
C953        C  0.43076048  0.92662834  0.85634566    -0.02180
O954        O  0.49099848  0.98068401  0.41634900    -0.74980
O955        O  0.46135750  0.96227930  0.47222694    -0.53890
C956        C  0.48251709  0.97856081  0.45799364     0.78750
O957        O  0.38488061  0.99190169  0.26821732    -0.59580
O958        O  0.40807722  0.96318787  0.21177384    -0.52610
C959        C  0.39154181  0.98525202  0.22574119     0.70760
O960        O  0.37463807  0.99058317  0.42620458    -0.74140
O961        O  0.39526581  0.96175897  0.48384765    -0.54700
C962        C  0.37747061  0.98280233  0.46968691     0.76770
O963        O  0.48796885  0.97659439  0.26929972    -0.59280
O964        O  0.46335556  0.95307189  0.21163278    -0.52400
C965        C  0.48284085  0.97162728  0.22602349     0.73360
Zr966      Zr  0.47160082  0.96377445  0.34648724     2.54710
O967        O  0.47231818  0.52286728  0.34742527    -0.79850
O968        O  0.02040861  0.95405859  0.33996491    -0.93270
Zr969      Zr  0.39314498  0.97658940  0.34807066     2.64680
O970        O  0.40119708  0.53463952  0.35321855    -0.98220
O971        O  0.34443384  0.98475589  0.33845303    -0.80280
O972        O  0.43241350  0.97199217  0.39448807    -0.83640
O973        O  0.43284131  0.97051506  0.30109476    -2.18350
O974        O  0.48963783  0.86711916  0.28718848    -0.67030
O975        O  0.46336801  0.88424654  0.22652118    -0.51590
C976        C  0.48459055  0.87048860  0.24398359     0.71740
O977        O  0.36382933  0.86883495  0.41698496    -0.59940
O978        O  0.38959737  0.89226403  0.47474652    -0.51910
C979        C  0.36935859  0.87505418  0.45961929     0.73540
O980        O  0.36661710  0.87159837  0.26504534    -0.71330
O981        O  0.39484595  0.89176760  0.20953631    -0.50010
C982        C  0.37294864  0.87652483  0.22198620     0.74930
O983        O  0.47677390  0.85841717  0.43269942    -0.66660
O984        O  0.45524670  0.88783584  0.48898152    -0.53860
C985        C  0.47281218  0.86594739  0.47580346     0.73310
Zr986      Zr  0.46100371  0.86919938  0.35382440     2.77540
O987        O  0.44358383  0.81432169  0.34353567    -0.97410
O988        O  0.00398621  0.83983507  0.35563832    -0.78230
Zr989      Zr  0.38347191  0.88179498  0.34358696     2.70070
O990        O  0.38136390  0.82280154  0.33994478    -0.79480
O991        O  0.33421859  0.88888982  0.34310127    -0.98560
Zr992      Zr  0.42644042  0.92468144  0.44103280     2.21500
Zr993      Zr  0.42948487  0.92158402  0.25614175     2.11130
O994        O  0.42388445  0.87310957  0.30070562    -2.47250
O995        O  0.42061588  0.87562584  0.39667277    -0.79270
O996        O  0.46744638  0.91525023  0.30575941    -0.71470
O997        O  0.38751081  0.92898237  0.39123108    -2.32420
O998        O  0.46701341  0.91788640  0.39602042    -2.28630
O999        O  0.38852733  0.92951932  0.30001197    -0.73230
H1000       H  0.43555433  0.98934575  0.28172027     0.78770
H1001       H  0.37094497  0.93107009  0.40930956     0.79860
H1002       H  0.42260710  0.85422063  0.28064784     0.82080
H1003       H  0.48297002  0.91656466  0.41552338     0.79690
H1004       H  0.33637136  0.96315920  0.34427338     0.42720
H1005       H  0.33055284  0.90420604  0.31734087     0.41690
H1006       H  0.38848095  0.81549142  0.37044584     0.41370
H1007       H  0.45553693  0.80444958  0.31931650     0.39310
H1008       H  0.01756260  0.85617909  0.36569090     0.42440
H1009       H  0.02468727  0.93902815  0.36578712     0.37220
H1010       H  0.45961978  0.52932171  0.37285372     0.43340
H1011       H  0.41177569  0.53977739  0.32468141     0.39750
H1012       H  0.44841090  0.80291828  0.37269690     0.44670
H1013       H  0.02893238  0.97488065  0.34909017     0.43400
H1014       H  0.38306323  0.54446517  0.34781328     0.43530
H1015       H  0.32697727  0.86784197  0.33189546     0.43890
O1016       O  0.48185603  0.73957390  0.92657711    -0.74980
O1017       O  0.45965265  0.71208304  0.98443776    -0.53890
C1018       C  0.47812620  0.73127332  0.96872263     0.78750
O1019       O  0.36564436  0.73639581  0.79215851    -0.59580
O1020       O  0.39149414  0.71293319  0.73428727    -0.52610
C1021       C  0.37172601  0.73064320  0.74962238     0.70760
O1022       O  0.36922819  0.73553286  0.94502508    -0.74140
O1023       O  0.39609948  0.70980990  0.99787488    -0.54700
C1024       C  0.37616616  0.72837222  0.98695499     0.76770
O1025       O  0.47772634  0.73466587  0.77381192    -0.59280
O1026       O  0.45466503  0.70785677  0.71791208    -0.52400
C1027       C  0.47361598  0.72730705  0.73069432     0.73360
Zr1028     Zr  0.46360995  0.72599047  0.85389395     2.54710
O1029       O  0.45993676  0.78491529  0.85187734    -0.79850
O1030       O  0.01296688  0.73089105  0.84705677    -0.93270
Zr1031     Zr  0.38459677  0.72490962  0.86555572     2.64680
O1032       O  0.38868296  0.78364414  0.87125888    -0.98220
O1033       O  0.33523202  0.73049361  0.86821573    -0.80280
O1034       O  0.42573367  0.72715170  0.90640660    -0.83640
O1035       O  0.42269763  0.72706037  0.81314788    -2.18350
O1036       O  0.48179516  0.61796522  0.78621403    -0.67030
O1037       O  0.45734151  0.64362925  0.72960834    -0.51590
C1038       C  0.47665646  0.62517541  0.74399424     0.71740
O1039       O  0.37736932  0.60967911  0.93558281    -0.59940
O1040       O  0.40212635  0.63629809  0.99145037    -0.51910
C1041       C  0.38530550  0.61449021  0.97785540     0.73540
O1042       O  0.36732770  0.62098610  0.77597381    -0.71330
O1043       O  0.39453931  0.64566498  0.72234179    -0.50010
C1044       C  0.37408151  0.62819792  0.73341730     0.74930
O1045       O  0.48226353  0.62045783  0.93989686    -0.66660
O1046       O  0.45659042  0.64632230  0.99522421    -0.53860
C1047       C  0.47645311  0.62811650  0.98251632     0.73310
Zr1048     Zr  0.46471194  0.62983425  0.86127615     2.77540
O1049       O  0.46272878  0.57147662  0.87094589    -0.97410
O1050       O  0.01418709  0.62576924  0.85923639    -0.78230
Zr1051     Zr  0.38441689  0.62928853  0.85689504     2.70070
O1052       O  0.38120221  0.57061386  0.84849972    -0.79480
O1053       O  0.33511485  0.63276412  0.86408461    -0.98560
Zr1054     Zr  0.42588030  0.67763055  0.94871081     2.21500
Zr1055     Zr  0.42447740  0.67750860  0.76952818     2.11130
O1056       O  0.42515575  0.62794339  0.81276970    -2.47250
O1057       O  0.42427348  0.62869032  0.90422600    -0.79270
O1058       O  0.46515816  0.67678233  0.81329716    -0.71470
O1059       O  0.38404438  0.67585791  0.90679842    -2.32420
O1060       O  0.46572877  0.67893534  0.90147015    -2.28630
O1061       O  0.38423223  0.67821947  0.81614181    -0.73230
H1062       H  0.42198398  0.74585816  0.79317897     0.78770
H1063       H  0.36854491  0.67476740  0.92766025     0.79860
H1064       H  0.42549289  0.60924419  0.79223687     0.82080
H1065       H  0.48234671  0.67906709  0.91923283     0.79690
H1066       H  0.32868063  0.70953738  0.88065405     0.42720
H1067       H  0.32974366  0.64987511  0.84177722     0.41690
H1068       H  0.39251293  0.56179676  0.87404932     0.41370
H1069       H  0.44384068  0.56556773  0.86276907     0.39310
H1070       H  0.02054639  0.64848418  0.86191092     0.42440
H1071       H  0.02049327  0.71602243  0.87082783     0.37220
H1072       H  0.45544994  0.79144690  0.88440259     0.43340
H1073       H  0.40533213  0.78889774  0.85332615     0.39750
H1074       H  0.47426498  0.56256914  0.84545206     0.44670
H1075       H  0.01726151  0.75295187  0.85875826     0.43400
H1076       H  0.37352229  0.79217509  0.85219331     0.43530
H1077       H  0.32837886  0.61236074  0.84984194     0.43890
O1078       O  0.20537449  0.98012891  0.96962963    -0.74980
O1079       O  0.24244597  0.97026775  0.92304304    -0.53890
C1080       C  0.23055289  0.98141322  0.96087762     0.78750
O1081       O  0.13157427  0.86722626  0.94153963    -0.59580
O1082       O  0.09626905  0.88846155  0.89957459    -0.52610
C1083       C  0.10640549  0.87113981  0.93262464     0.70760
O1084       O  0.22053469  0.87118988  0.95308352    -0.74140
O1085       O  0.25418052  0.89926004  0.91546628    -0.54700
C1086       C  0.24557515  0.87906998  0.94697310     0.76770
O1087       O  0.12368824  0.98877121  0.94480378    -0.59280
O1088       O  0.09264599  0.95679208  0.90754174    -0.52400
C1089       C  0.09964313  0.97779514  0.93926560     0.73360
Zr1090     Zr  0.16911401  0.97858310  0.91757157     2.54710
O1091       O  0.15989938  0.99382805  0.99862398    -0.79850
O1092       O  0.17712422  0.53632254  0.90766960    -0.93270
Zr1093     Zr  0.17602518  0.88405629  0.92172682     2.64680
O1094       O  0.17470443  0.89388431  0.00584129    -0.98220
O1095       O  0.17796085  0.82561359  0.93101268    -0.80280
O1096       O  0.19890919  0.93338193  0.92190608    -0.83640
O1097       O  0.14591941  0.92892346  0.91835404    -2.18350
O1098       O  0.13073601  0.98947731  0.75916150    -0.67030
O1099       O  0.09591070  0.96361678  0.79707240    -0.51590
C1100       C  0.10562052  0.98297495  0.76607890     0.71740
O1101       O  0.22106323  0.87987355  0.75427032    -0.59940
O1102       O  0.25481371  0.89621359  0.80355108    -0.51910
C1103       C  0.24584583  0.88193030  0.76613620     0.73540
O1104       O  0.13665646  0.86820784  0.74895125    -0.71330
O1105       O  0.09986105  0.89223164  0.78348961    -0.50010
C1106       C  0.11116185  0.87396955  0.75143087     0.74930
O1107       O  0.21982628  0.98334303  0.74812617    -0.66660
O1108       O  0.25356898  0.96649914  0.79720962    -0.53860
C1109       C  0.24500011  0.97966873  0.75863689     0.73310
Zr1110     Zr  0.17573301  0.97706217  0.78499867     2.77540
O1111       O  0.17539140  0.98096540  0.70004061    -0.97410
O1112       O  0.18039195  0.53570948  0.79172152    -0.78230
Zr1113     Zr  0.17765600  0.88193410  0.78844973     2.70070
O1114       O  0.18002033  0.86583822  0.70649069    -0.79480
O1115       O  0.18141947  0.82472823  0.80738038    -0.98560
Zr1116     Zr  0.22960519  0.93321531  0.85752012     2.21500
Zr1117     Zr  0.11975050  0.92631694  0.84801466     2.11130
O1118       O  0.15016127  0.92841562  0.78255985    -2.47250
O1119       O  0.20294206  0.93037468  0.78845876    -0.79270
O1120       O  0.14396234  0.97711112  0.84809264    -0.71470
O1121       O  0.20495969  0.88296424  0.85612027    -2.32420
O1122       O  0.20102994  0.98092073  0.85467611    -2.28630
O1123       O  0.14867668  0.87937864  0.85341730    -0.73230
H1124       H  0.13443385  0.92832708  0.94580442     0.78770
H1125       H  0.21704289  0.86443256  0.85691880     0.79860
H1126       H  0.14043864  0.92818649  0.75331686     0.82080
H1127       H  0.21179954  0.00049423  0.85562043     0.79690
H1128       H  0.17473879  0.82199929  0.96478586     0.42720
H1129       H  0.16278293  0.81620566  0.80270287     0.41690
H1130       H  0.17967998  0.88652617  0.68904505     0.41370
H1131       H  0.16211014  0.96443375  0.68959933     0.39310
H1132       H  0.20017969  0.53987353  0.78886614     0.42440
H1133       H  0.19528873  0.53989530  0.92152684     0.37220
H1134       H  0.15700767  0.97302328  0.01509789     0.43340
H1135       H  0.15522191  0.89703439  0.01367762     0.39750
H1136       H  0.16667207  0.00209700  0.69326262     0.44670
H1137       H  0.16442765  0.54686993  0.93012527     0.43400
H1138       H  0.17952098  0.87276337  0.01990243     0.43530
H1139       H  0.19220147  0.81525512  0.78128925     0.43890
C1140       C  0.17712265  0.67225304  0.85834212    -0.02180
C1141       C  0.17761723  0.92940812  0.35013791    -0.02180
C1142       C  0.42920606  0.67829668  0.34841736    -0.02180
O1143       O  0.49035220  0.61671851  0.66767617    -0.74980
O1144       O  0.01382781  0.59275913  0.72711945    -0.53890
C1145       C  0.99476493  0.61074614  0.71063029     0.78750
O1146       O  0.48978241  0.49343115  0.53307214    -0.59580
O1147       O  0.01905434  0.51365710  0.47806672    -0.52610
C1148       C  0.49831553  0.49641510  0.49162949     0.70760
O1149       O  0.48682673  0.49759468  0.67858449    -0.74140
O1150       O  0.01045812  0.52299605  0.73651592    -0.54700
C1151       C  0.99146438  0.50405174  0.72149530     0.76770
O1152       O  0.50141184  0.61883403  0.51686467    -0.59280
O1153       O  0.02440774  0.58740891  0.46384861    -0.52400
C1154       C  0.00670395  0.60961410  0.47465039     0.73360
Zr1155     Zr  0.01469843  0.60630929  0.59721788     2.54710
O1156       O  0.46784162  0.62409171  0.58646583    -0.79850
O1157       O  0.02789046  0.66294908  0.60412881    -0.93270
Zr1158     Zr  0.00600750  0.51131364  0.60448578     2.64680
O1159       O  0.45691961  0.52042052  0.60459971    -0.98220
O1160       O  0.00418275  0.95221564  0.60305954    -0.80280
O1161       O  0.00780812  0.56025408  0.64578012    -0.83640
O1162       O  0.01063561  0.55728686  0.55548017    -2.18350
O1163       O  0.11185833  0.61023128  0.53900994    -0.67030
O1164       O  0.08721218  0.58633084  0.48037785    -0.51590
C1165       C  0.10658722  0.60447709  0.49614727     0.71740
O1166       O  0.09585407  0.49139635  0.68901201    -0.59940
O1167       O  0.06879758  0.51587205  0.74423604    -0.51910
C1168       C  0.08824670  0.49709788  0.73143743     0.73540
O1169       O  0.10665156  0.48778520  0.53074838    -0.71330
O1170       O  0.08514938  0.51620115  0.47323232    -0.50010
C1171       C  0.10327493  0.49575221  0.48749279     0.74930
O1172       O  0.10922207  0.60374859  0.69140083    -0.66660
O1173       O  0.07824507  0.58525858  0.74409618    -0.53860
C1174       C  0.10065172  0.59992890  0.73350540     0.73310
Zr1175     Zr  0.09328649  0.59463687  0.61226984     2.77540
O1176       O  0.14238660  0.58557503  0.61415142    -0.97410
O1177       O  0.09816345  0.65272140  0.62561643    -0.78230
Zr1178     Zr  0.08496477  0.49981005  0.60725854     2.70070
O1179       O  0.13251873  0.48395863  0.61420434    -0.79480
O1180       O  0.07295972  0.94267369  0.60175186    -0.98560
Zr1181     Zr  0.04578070  0.55421054  0.69591714     2.21500
Zr1182     Zr  0.05227928  0.55161387  0.51364533     2.11130
O1183       O  0.09079372  0.54767092  0.56431217    -2.47250
O1184       O  0.08786286  0.54696008  0.65526611    -0.79270
O1185       O  0.05657215  0.60078131  0.55810543    -0.71470
O1186       O  0.04421730  0.50474090  0.65213908    -2.32420
O1187       O  0.05144632  0.60247453  0.65129537    -2.28630
O1188       O  0.04632140  0.50394934  0.55909450    -0.73230
H1189       H  0.49523532  0.55836313  0.53466435     0.78770
H1190       H  0.04188894  0.98615232  0.67214967     0.79860
H1191       H  0.10756068  0.54648497  0.54665712     0.82080
H1192       H  0.05203641  0.62130734  0.67154869     0.79690
H1193       H  0.00517956  0.94552397  0.63616524     0.42720
H1194       H  0.06413196  0.94027379  0.57086760     0.41690
H1195       H  0.14277233  0.50426539  0.60881910     0.41370
H1196       H  0.14664930  0.57211535  0.58624546     0.39310
H1197       H  0.07970388  0.66083392  0.63338998     0.42440
H1198       H  0.01828018  0.67101720  0.63243405     0.37220
H1199       H  0.45758499  0.60380491  0.58069826     0.43340
H1200       H  0.45334799  0.53391383  0.57676253     0.39750
H1201       H  0.15051232  0.60700933  0.60736445     0.44670
H1202       H  0.51852507  0.67367019  0.57783111     0.43400
H1203       H  0.44886566  0.49903581  0.59697651     0.43530
H1204       H  0.09062577  0.93125682  0.59814056     0.43890
O1205       O  0.49813020  0.86070236  0.01873425    -0.74980
O1206       O  0.01978781  0.82949450  0.96405966    -0.53890
C1207       C  0.00210941  0.85076795  0.97661573     0.78750
O1208       O  0.11439423  0.86336622  0.16994110    -0.59580
O1209       O  0.09005833  0.84052398  0.22946481    -0.52610
C1210       C  0.10932623  0.85845558  0.21367594     0.70760
O1211       O  0.09811027  0.86272272  0.00991605    -0.74140
O1212       O  0.07237395  0.83498432  0.95686239    -0.54700
C1213       C  0.08998309  0.85631305  0.96807680     0.76770
O1214       O  0.49844960  0.86317817  0.16966632    -0.59280
O1215       O  0.02455167  0.84122529  0.22735267    -0.52400
C1216       C  0.00414397  0.85766085  0.21199194     0.73360
Zr1217     Zr  0.01632807  0.85087607  0.09633907     2.54710
O1218       O  0.02426792  0.90903935  0.09445488    -0.79850
O1219       O  0.46719486  0.85972831  0.09981021    -0.93270
Zr1220     Zr  0.09570232  0.84942163  0.09259258     2.64680
O1221       O  0.10359654  0.90769437  0.09081050    -0.98220
O1222       O  0.14440808  0.84217250  0.08000304    -0.80280
O1223       O  0.05479098  0.84923088  0.04880148    -0.83640
O1224       O  0.05686658  0.85338440  0.14152485    -2.18350
O1225       O  0.50286045  0.74752035  0.19190808    -0.67030
O1226       O  0.02673313  0.77734270  0.24414139    -0.51590
C1227       C  0.00745513  0.75726846  0.23390989     0.71740
O1228       O  0.10865150  0.74075738  0.01536632    -0.59940
O1229       O  0.08202520  0.76626883  0.96178037    -0.51910
C1230       C  0.10175413  0.74750554  0.97321605     0.73540
O1231       O  0.11693489  0.74852470  0.16751702    -0.71330
O1232       O  0.09089518  0.77099802  0.22591188    -0.50010
C1233       C  0.11096231  0.75386451  0.21023937     0.74930
O1234       O  0.49317607  0.73870621  0.04322144    -0.66660
O1235       O  0.01658339  0.76168931  0.98266507    -0.53860
C1236       C  0.99726722  0.74453237  0.00029214     0.73310
Zr1237     Zr  0.01616536  0.75447307  0.11106497     2.77540
O1238       O  0.02314998  0.69597746  0.11487213    -0.97410
O1239       O  0.46718356  0.74841733  0.12058645    -0.78230
Zr1240     Zr  0.09456786  0.75390550  0.09492729     2.70070
O1241       O  0.08708132  0.69582844  0.10339772    -0.79480
O1242       O  0.14289656  0.74223763  0.08335311    -0.98560
Zr1243     Zr  0.05127313  0.79826039  0.00982059     2.21500
Zr1244     Zr  0.05775766  0.80597802  0.18980026     2.11130
O1245       O  0.05781087  0.75484744  0.14998640    -2.47250
O1246       O  0.05260782  0.75037935  0.05592583    -0.79270
O1247       O  0.01660776  0.80543903  0.14738418    -0.71470
O1248       O  0.09414963  0.80072871  0.04858086    -2.32420
O1249       O  0.01296551  0.80014153  0.06036858    -2.28630
O1250       O  0.09656313  0.80285280  0.13923239    -0.73230
H1251       H  0.05727404  0.87302243  0.16011234     0.78770
H1252       H  0.10920760  0.80081548  0.02673739     0.79860
H1253       H  0.05887420  0.73688535  0.17144856     0.82080
H1254       H  0.49588696  0.80001319  0.04383738     0.79690
H1255       H  0.14944236  0.82376983  0.10032433     0.42720
H1256       H  0.15271799  0.75923500  0.10111609     0.41690
H1257       H  0.07845649  0.68895116  0.07374039     0.41370
H1258       H  0.02524815  0.69127065  0.14857628     0.39310
H1259       H  0.46038150  0.77095809  0.12394773     0.42440
H1260       H  0.45924652  0.84266741  0.07954846     0.37220
H1261       H  0.03552137  0.91230439  0.06605491     0.43340
H1262       H  0.11701670  0.91214299  0.11573536     0.39750
H1263       H  0.50527692  0.68652318  0.10657243     0.44670
H1264       H  0.46388831  0.88031146  0.08307006     0.43400
H1265       H  0.11397458  0.91124210  0.06156631     0.43530
H1266       H  0.14639823  0.72186980  0.10052173     0.43890
O1267       O  0.35369899  0.99072472  0.00890219    -0.74980
O1268       O  0.38779400  0.51571902  0.04812221    -0.53890
C1269       C  0.37879642  0.49579251  0.01619889     0.78750
O1270       O  0.26312143  0.60315591  0.99381469    -0.59580
O1271       O  0.22837116  0.58006714  0.03567434    -0.52610
C1272       C  0.23781131  0.59649666  0.00043402     0.70760
O1273       O  0.35064103  0.57999547  0.00109978    -0.74140
O1274       O  0.38378837  0.58893080  0.05231135    -0.54700
C1275       C  0.37286919  0.59385988  0.01247284     0.76770
O1276       O  0.27198947  0.99165258  0.99144552    -0.59280
O1277       O  0.23526610  0.51039077  0.03332295    -0.52400
C1278       C  0.24672353  0.49553832  0.99779560     0.73360
Zr1279     Zr  0.30969081  0.50151939  0.03796552     2.54710
O1280       O  0.31509082  0.48525273  0.95637460    -0.79850
O1281       O  0.30698200  0.94454141  0.05905000    -0.93270
Zr1282     Zr  0.30708704  0.59687017  0.03263187     2.64680
O1283       O  0.31195814  0.62184008  0.95608970    -0.98220
O1284       O  0.31438408  0.65411823  0.04946094    -0.80280
O1285       O  0.33474335  0.54962329  0.03547575    -0.83640
O1286       O  0.28207181  0.54841742  0.03263463    -2.18350
O1287       O  0.26071642  0.98979359  0.20015006    -0.67030
O1288       O  0.22662701  0.51361884  0.15833065    -0.51590
C1289       C  0.23545566  0.49555581  0.19258595     0.71740
O1290       O  0.34599783  0.61047216  0.20252179    -0.59940
O1291       O  0.38230167  0.58695010  0.16603893    -0.51910
C1292       C  0.37162016  0.60560317  0.19805767     0.73540
O1293       O  0.25873470  0.60786845  0.19407040    -0.71330
O1294       O  0.22522270  0.58287568  0.15180692    -0.50010
C1295       C  0.23390693  0.60093559  0.18587573     0.74930
O1296       O  0.34964224  0.99580371  0.19987883    -0.66660
O1297       O  0.38530557  0.51690942  0.15840912    -0.53860
C1298       C  0.37489138  0.50054259  0.19197679     0.73310
Zr1299     Zr  0.30514416  0.50355106  0.16995100     2.77540
O1300       O  0.30532549  0.50331426  0.25521792    -0.97410
O1301       O  0.30782429  0.94457028  0.16644693    -0.78230
Zr1302     Zr  0.30363338  0.59857436  0.16536234     2.70070
O1303       O  0.30076365  0.61043840  0.24873433    -0.79480
O1304       O  0.30282366  0.65626141  0.14831561    -0.98560
Zr1305     Zr  0.36168050  0.55148926  0.10469814     2.21500
Zr1306     Zr  0.25104927  0.54734402  0.09728556     2.11130
O1307       O  0.27804815  0.55023624  0.16657042    -2.47250
O1308       O  0.33110662  0.55181191  0.17017322    -0.79270
O1309       O  0.27866537  0.49928172  0.10125766    -0.71470
O1310       O  0.33383002  0.59994179  0.10129479    -2.32420
O1311       O  0.33586606  0.50217038  0.10593590    -2.28630
O1312       O  0.27661432  0.59734071  0.09714520    -0.73230
H1313       H  0.27300889  0.54793481  0.00295466     0.78770
H1314       H  0.34495390  0.61922795  0.10228381     0.79860
H1315       H  0.26682340  0.55014222  0.19432880     0.82080
H1316       H  0.34773025  0.98346867  0.10713331     0.79690
H1317       H  0.33302540  0.65843176  0.03772352     0.42720
H1318       H  0.28386196  0.66297169  0.15534900     0.41690
H1319       H  0.29997524  0.58885103  0.26368506     0.41370
H1320       H  0.29066970  0.51851959  0.26490761     0.39310
H1321       H  0.29029727  0.93766597  0.15270751     0.42440
H1322       H  0.32330126  0.93987088  0.07795525     0.37220
H1323       H  0.31763040  0.50584828  0.93922770     0.43340
H1324       H  0.30326048  0.60646249  0.93402490     0.39750
H1325       H  0.29861641  0.98156657  0.26415454     0.44670
H1326       H  0.31022608  0.93277990  0.02926767     0.43400
H1327       H  0.29983437  0.64108576  0.95661552     0.43530
H1328       H  0.31383127  0.66635536  0.17339158     0.43890
C1329       C  0.29832132  0.80149703  0.09695442    -0.02180
C1330       C  0.05073465  0.80006156  0.60762920    -0.02180
O1331       O  0.12259265  0.73680507  0.43642667    -0.74980
O1332       O  0.14750669  0.70825331  0.48923060    -0.53890
C1333       C  0.12843150  0.72899258  0.47867066     0.78750
O1334       O  0.11930542  0.61390892  0.26574097    -0.59580
O1335       O  0.14280711  0.64244369  0.21093866    -0.52610
C1336       C  0.12428665  0.62187407  0.22291818     0.70760
O1337       O  0.11774383  0.61516747  0.42000853    -0.74140
O1338       O  0.14453830  0.63685754  0.47758757    -0.54700
C1339       C  0.12420584  0.61991384  0.46257653     0.76770
O1340       O  0.12306537  0.74375814  0.28600998    -0.59280
O1341       O  0.14432578  0.71567364  0.22682691    -0.52400
C1342       C  0.12758634  0.73711771  0.24314142     0.73360
Zr1343     Zr  0.13818719  0.72237631  0.35770189     2.54710
O1344       O  0.08878356  0.71818732  0.35970712    -0.79850
O1345       O  0.13979840  0.78123398  0.36388196    -0.93270
Zr1346     Zr  0.13563930  0.62746171  0.34522494     2.64680
O1347       O  0.08617602  0.62868862  0.34459843    -0.98220
O1348       O  0.13564902  0.56864032  0.34527251    -0.80280
O1349       O  0.13760062  0.67296131  0.39724366    -0.83640
O1350       O  0.13508331  0.67697305  0.30560983    -2.18350
O1351       O  0.23272968  0.73383858  0.26806894    -0.67030
O1352       O  0.20649240  0.70949303  0.21256851    -0.51590
C1353       C  0.22628243  0.72818331  0.22528083     0.71740
O1354       O  0.23220263  0.60729747  0.42675242    -0.59940
O1355       O  0.20897685  0.63466421  0.48432906    -0.51910
C1356       C  0.22725932  0.61389719  0.47059630     0.73540
O1357       O  0.22285769  0.60828234  0.26403078    -0.71330
O1358       O  0.19864816  0.63630915  0.20912181    -0.50010
C1359       C  0.21602939  0.61480704  0.22142336     0.74930
O1360       O  0.23696167  0.73450697  0.41853397    -0.66660
O1361       O  0.21375806  0.70756029  0.47599623    -0.53860
C1362       C  0.23237412  0.72739874  0.46108205     0.73310
Zr1363     Zr  0.21789612  0.71860205  0.34614535     2.77540
O1364       O  0.26742155  0.71511956  0.34776659    -0.97410
O1365       O  0.21629705  0.77756601  0.34519543    -0.78230
Zr1366     Zr  0.21568336  0.62304445  0.34679242     2.70070
O1367       O  0.26505500  0.62526190  0.33929608    -0.79480
O1368       O  0.21726913  0.56407087  0.34862132    -0.98560
Zr1369     Zr  0.17846236  0.67202841  0.44176405     2.21500
Zr1370     Zr  0.17485369  0.67506592  0.25756914     2.11130
O1371       O  0.21656635  0.67097703  0.30036347    -2.47250
O1372       O  0.21777920  0.67085396  0.39240549    -0.79270
O1373       O  0.17645461  0.72254129  0.30573348    -0.71470
O1374       O  0.17560176  0.62413521  0.39285112    -2.32420
O1375       O  0.17972824  0.72115231  0.39826401    -2.28630
O1376       O  0.17551051  0.62525180  0.30015013    -0.73230
H1377       H  0.11871808  0.67836795  0.28714282     0.78770
H1378       H  0.17490606  0.60481655  0.41177671     0.79860
H1379       H  0.23205284  0.67023378  0.27943545     0.82080
H1380       H  0.18091138  0.73987882  0.41864514     0.79690
H1381       H  0.13253451  0.56237257  0.37822499     0.42720
H1382       H  0.21524201  0.55709548  0.31564405     0.41690
H1383       H  0.27110180  0.63793586  0.36687399     0.41370
H1384       H  0.27205436  0.69607298  0.32802753     0.39310
H1385       H  0.20702024  0.78285660  0.31552672     0.42440
H1386       H  0.14725079  0.78571567  0.39537656     0.37220
H1387       H  0.08505612  0.69808895  0.37737173     0.43340
H1388       H  0.08148864  0.64272747  0.31787782     0.39750
H1389       H  0.27387383  0.73409317  0.32984173     0.44670
H1390       H  0.12048284  0.78809009  0.36601240     0.43400
H1391       H  0.08068113  0.60661149  0.33462834     0.43530
H1392       H  0.23641338  0.55878301  0.35628283     0.43890
O1393       O  0.36072944  0.74086402  0.67369343    -0.74980
O1394       O  0.33576396  0.76490070  0.73224054    -0.53890
C1395       C  0.35485116  0.74636195  0.71635505     0.78750
O1396       O  0.35628330  0.86798137  0.53600458    -0.59580
O1397       O  0.33291924  0.84044317  0.47908349    -0.52610
C1398       C  0.35137115  0.86048559  0.49359609     0.70760
O1399       O  0.35729673  0.86563055  0.68854298    -0.74140
O1400       O  0.33575385  0.83499980  0.74361938    -0.54700
C1401       C  0.35341525  0.85657877  0.73114365     0.76770
O1402       O  0.35949107  0.74338739  0.52274582    -0.59280
O1403       O  0.33341069  0.76938085  0.46867474    -0.52400
C1404       C  0.35347705  0.75050272  0.48031891     0.73360
Zr1405     Zr  0.34258266  0.75624565  0.60107305     2.54710
O1406       O  0.39200938  0.76022279  0.59757290    -0.79850
O1407       O  0.34261529  0.69734211  0.59912300    -0.93270
Zr1408     Zr  0.34041209  0.85116398  0.61030996     2.64680
O1409       O  0.39006613  0.85036804  0.61169691    -0.98220
O1410       O  0.33610507  0.91001680  0.61269975    -0.80280
O1411       O  0.34250920  0.80231153  0.65186727    -0.83640
O1412       O  0.34132589  0.80491496  0.56011242    -2.18350
O1413       O  0.24478193  0.73711662  0.53752423    -0.67030
O1414       O  0.26791185  0.76426523  0.48014475    -0.51590
C1415       C  0.24965435  0.74390934  0.49494205     0.71740
O1416       O  0.25550710  0.86962784  0.68909203    -0.59940
O1417       O  0.27890259  0.84237915  0.74591550    -0.51910
C1418       C  0.26264661  0.86477910  0.73205258     0.73540
O1419       O  0.24563719  0.86452749  0.52885942    -0.71330
O1420       O  0.26911567  0.83786722  0.47144496    -0.50010
C1421       C  0.25077599  0.85842235  0.48518985     0.74930
O1422       O  0.24947539  0.73687360  0.68829046    -0.66660
O1423       O  0.27245058  0.76387598  0.74509184    -0.53860
C1424       C  0.25488033  0.74219406  0.73153210     0.73310
Zr1425     Zr  0.26311933  0.75350081  0.61049746     2.77540
O1426       O  0.21363838  0.75082827  0.61722872    -0.97410
O1427       O  0.27007414  0.69505626  0.60703309    -0.78230
Zr1428     Zr  0.25968075  0.84794855  0.60920177     2.70070
O1429       O  0.21382366  0.82674090  0.61955301    -0.79480
O1430       O  0.23476178  0.89902559  0.60363857    -0.98560
Zr1431     Zr  0.30274317  0.80156666  0.70000800     2.21500
Zr1432     Zr  0.30057162  0.80292210  0.51517851     2.11130
O1433       O  0.26068253  0.80066487  0.56340598    -2.47250
O1434       O  0.26110214  0.80097508  0.65691759    -0.79270
O1435       O  0.30157203  0.75389212  0.55896518    -0.71470
O1436       O  0.30053640  0.85045917  0.65465146    -2.32420
O1437       O  0.30412888  0.75360761  0.65228601    -2.28630
O1438       O  0.30002295  0.85113981  0.56334987    -0.73230
H1439       H  0.35736792  0.80550119  0.54052273     0.78770
H1440       H  0.30204843  0.86987252  0.67349176     0.79860
H1441       H  0.24437474  0.80027618  0.54466544     0.82080
H1442       H  0.30500213  0.73427973  0.67115526     0.79690
H1443       H  0.32159659  0.91503308  0.58990402     0.42720
H1444       H  0.24359387  0.91206439  0.57888075     0.41690
H1445       H  0.21102471  0.82605148  0.65383110     0.41370
H1446       H  0.20653671  0.76315934  0.59028307     0.39310
H1447       H  0.27456668  0.69030545  0.57390339     0.42440
H1448       H  0.33707740  0.69078051  0.63102941     0.37220
H1449       H  0.39653491  0.77850425  0.61875989     0.43340
H1450       H  0.39562297  0.83744929  0.58391612     0.39750
H1451       H  0.20904150  0.72793314  0.61022456     0.44670
H1452       H  0.36210024  0.69123060  0.59686998     0.43400
H1453       H  0.39556545  0.87286255  0.60430305     0.43530
H1454       H  0.21654191  0.89346873  0.59126316     0.43890
C1455       C  0.30475975  0.55238100  0.61020444    -0.02180
C1456       C  0.04864406  0.55080939  0.09445692    -0.02180
C1457       C  0.11708505  0.58687736  0.15037607    -0.11960
C1458       C  0.10635639  0.60715945  0.18577444     0.05050
C1459       C  0.07793865  0.61208800  0.18679114    -0.07240
C1460       C  0.06109636  0.59433798  0.15620766    -0.07990
C1461       C  0.07100523  0.57139572  0.12269771    -0.02540
C1462       C  0.10012937  0.57010304  0.11792994     0.04280
N1463       N  0.11330137  0.55338536  0.07998532     0.66780
H1464       H  0.13899767  0.58419644  0.14763776     0.15680
H1465       H  0.03947678  0.59831642  0.15929253     0.15390
N1466       N  0.06575910  0.63571663  0.21786315     0.74490
O1467       O  0.11043144  0.56395327  0.03898289    -0.38960
O1468       O  0.13302029  0.53458723  0.08833782    -0.38900
O1469       O  0.07742707  0.66251658  0.22527466    -0.39610
O1470       O  0.04174546  0.63183443  0.23278317    -0.39680
C1471       C  0.26920267  0.61319660  0.52049438    -0.11960
C1472       C  0.24496544  0.59786785  0.50777983     0.05050
C1473       C  0.23869099  0.56832342  0.53100392    -0.07240
C1474       C  0.25654772  0.55592674  0.56645665    -0.07990
C1475       C  0.28182955  0.57066808  0.57890995    -0.02540
C1476       C  0.28761282  0.60002731  0.55330659     0.04280
N1477       N  0.31282700  0.61678999  0.55799689     0.66780
H1478       H  0.27466377  0.63555814  0.50305279     0.15680
H1479       H  0.25066307  0.53363441  0.58262577     0.15390
N1480       N  0.21486902  0.54985975  0.51829626     0.74490
O1481       O  0.33253491  0.60930246  0.53154866    -0.38960
O1482       O  0.31301465  0.64379056  0.57891543    -0.38900
O1483       O  0.20472029  0.55212377  0.47795589    -0.39610
O1484       O  0.20529998  0.52895144  0.54590887    -0.39680
C1485       C  0.11059971  0.77952664  0.51873415    -0.12200
C1486       C  0.11121778  0.74548906  0.51634735     0.05050
C1487       C  0.09153196  0.72867585  0.54322165    -0.07240
C1488       C  0.07253102  0.74580663  0.57214939    -0.07990
C1489       C  0.07179726  0.78024521  0.57507421    -0.02540
C1490       C  0.09166768  0.79677971  0.54702394     0.04280
N1491       N  0.09318546  0.83147476  0.54678983     0.66780
H1492       H  0.12473603  0.79315494  0.49730877     0.15680
H1493       H  0.05850620  0.73158199  0.59262688     0.15390
N1494       N  0.08965121  0.69410620  0.53971059     0.74490
O1495       O  0.11337777  0.84521705  0.56547220    -0.38960
O1496       O  0.07871081  0.84731264  0.51858300    -0.38900
O1497       O  0.11089151  0.67690412  0.54049173    -0.39610
O1498       O  0.06675656  0.68058637  0.53573886    -0.39680
C1499       C  0.23210120  0.76208885  0.15292121    -0.11960
C1500       C  0.24379274  0.74427513  0.18937860     0.05050
C1501       C  0.27234090  0.74551943  0.19512367    -0.07240
C1502       C  0.28813389  0.76506600  0.16561390    -0.07990
C1503       C  0.27698960  0.78320334  0.12825398    -0.02540
C1504       C  0.24793726  0.78177400  0.12279493     0.04280
N1505       N  0.23337893  0.80153660  0.09025328     0.66780
H1506       H  0.21013047  0.76214857  0.14934661     0.15680
H1507       H  0.30996710  0.76525923  0.17089812     0.15390
N1508       N  0.28593792  0.72588538  0.22934302     0.74490
O1509       O  0.21617922  0.78817254  0.06376159    -0.38960
O1510       O  0.23023179  0.83125408  0.09962728    -0.38900
O1511       O  0.27827980  0.69711821  0.23649287    -0.39610
O1512       O  0.30779820  0.73559699  0.24775217    -0.39680
C1513       C  0.37616532  0.65198162  0.25345111    -0.11960
C1514       C  0.38828757  0.62410844  0.23333259     0.05050
C1515       C  0.41387519  0.61434416  0.25048624    -0.07240
C1516       C  0.42570435  0.63143001  0.28830484    -0.07990
C1517       C  0.41302782  0.65871999  0.31045424    -0.02540
C1518       C  0.38803919  0.66987230  0.29000664     0.04280
N1519       N  0.37449161  0.69970017  0.30372387     0.66780
H1520       H  0.35717650  0.66098929  0.23931179     0.15680
H1521       H  0.44572831  0.62367139  0.29909917     0.15390
N1522       N  0.42884368  0.58831497  0.22890617     0.74490
O1523       O  0.34878678  0.70090988  0.30480284    -0.38960
O1524       O  0.38754702  0.72585241  0.30829634    -0.38900
O1525       O  0.43453687  0.58978238  0.18591468    -0.39610
O1526       O  0.44139698  0.56815048  0.25396735    -0.39680
C1527       C  0.47035389  0.72018959  0.34218504    -0.11960
C1528       C  0.44725692  0.70520129  0.32008962     0.05050
C1529       C  0.44414092  0.71467338  0.27155907    -0.07240
C1530       C  0.46177391  0.73684728  0.25091080    -0.07990
C1531       C  0.48713498  0.74463203  0.26944487    -0.02540
C1532       C  0.99143613  0.73659802  0.31696402     0.04280
N1533       N  0.01718690  0.74230365  0.33946648     0.66780
H1534       H  0.47418130  0.71500666  0.37859901     0.15680
H1535       H  0.45695285  0.74436396  0.21561404     0.15390
N1536       N  0.42598281  0.70039240  0.23841126     0.74490
O1537       O  0.01856756  0.74313714  0.38352688    -0.38960
O1538       O  0.03907802  0.74084017  0.31627635    -0.38900
O1539       O  0.40767046  0.71814168  0.22099834    -0.39610
O1540       O  0.43512319  0.67740110  0.21347515    -0.39680
C1541       C  0.46079746  0.61956271  0.44344722    -0.11960
C1542       C  0.48879871  0.62398209  0.43767228     0.05050
C1543       C  0.99775506  0.64043371  0.39715451    -0.07240
C1544       C  0.47798033  0.65316035  0.36597006    -0.07990
C1545       C  0.44948096  0.65409960  0.37607534    -0.02540
C1546       C  0.44141989  0.63157449  0.41153443     0.04280
N1547       N  0.41602827  0.61457576  0.41022693     0.66780
H1548       H  0.45408375  0.60399727  0.47164154     0.15680
H1549       H  0.98528066  0.66309423  0.33345941     0.15390
N1550       N  0.02626212  0.64632629  0.38796079     0.74490
O1551       O  0.40785087  0.60323349  0.37176373    -0.38960
O1552       O  0.40702419  0.60181380  0.44726679    -0.38900
O1553       O  0.04385661  0.64297349  0.41961573    -0.39610
O1554       O  0.03352954  0.65903570  0.34984899    -0.39680
C1555       C  0.41574430  0.72621453  0.40573585    -0.11960
C1556       C  0.40862054  0.69548073  0.38600377     0.05050
C1557       C  0.38155896  0.68431424  0.40036917    -0.07240
C1558       C  0.36362506  0.70488578  0.42584216    -0.07990
C1559       C  0.37126824  0.73497963  0.44347863    -0.02540
C1560       C  0.39821121  0.74519945  0.43470808     0.04280
N1561       N  0.40850747  0.77456810  0.45564588     0.66780
H1562       H  0.43528638  0.73659918  0.39927239     0.15680
H1563       H  0.34363955  0.69578911  0.43532053     0.15390
N1564       N  0.37151823  0.65177237  0.39512940     0.74490
O1565       O  0.43336838  0.77681759  0.46620837    -0.38960
O1566       O  0.39303134  0.79856886  0.46309567    -0.38900
O1567       O  0.36434805  0.63750205  0.43214468    -0.39610
O1568       O  0.35909992  0.64375659  0.35841776    -0.39680
C1569       C  0.14114708  0.92458899  0.28743071    -0.11960
C1570       C  0.16009097  0.90772857  0.31581020     0.05050
C1571       C  0.16305324  0.87380663  0.30654018    -0.07240
C1572       C  0.14589085  0.85845343  0.27367653    -0.07990
C1573       C  0.12631124  0.87582023  0.24815446    -0.02540
C1574       C  0.12355871  0.90953284  0.25569265     0.04280
N1575       N  0.10257353  0.92898800  0.23373398     0.66780
H1576       H  0.13900258  0.95033039  0.29212112     0.15680
H1577       H  0.14835635  0.83266212  0.26715504     0.15390
N1578       N  0.18399868  0.85456875  0.32736331     0.74490
O1579       O  0.09694751  0.95691380  0.24956229    -0.38960
O1580       O  0.08906047  0.91860670  0.19939432    -0.38900
O1581       O  0.17738076  0.83243539  0.35538279    -0.39610
O1582       O  0.20710451  0.85307365  0.30799222    -0.39680
C1583       C  0.21126808  0.93371117  0.28165876    -0.11960
C1584       C  0.19359497  0.95082540  0.31236768     0.05050
C1585       C  0.18690495  0.98325900  0.29769368    -0.07240
C1586       C  0.19894701  0.49696140  0.25674763    -0.07990
C1587       C  0.21693002  0.97924516  0.22777375    -0.02540
C1588       C  0.22254804  0.94688898  0.24079779     0.04280
N1589       N  0.23943361  0.92647097  0.21193168     0.66780
H1590       H  0.21561903  0.90861329  0.28846386     0.15680
H1591       H  0.19452332  0.52198229  0.24813253     0.15390
N1592       N  0.16685997  0.50240414  0.32155623     0.74490
O1593       O  0.25527966  0.90601268  0.23016781    -0.38960
O1594       O  0.23616957  0.92621525  0.16824287    -0.38900
O1595       O  0.17427478  0.52065094  0.35461794    -0.39610
O1596       O  0.14481862  0.50875619  0.30096459    -0.39680
C1597       C  0.14994850  0.48508490  0.45358120    -0.11960
C1598       C  0.12160470  0.98026187  0.45170367     0.05050
C1599       C  0.11148785  0.95845431  0.41803963    -0.07240
C1600       C  0.12953609  0.94344016  0.38626979    -0.07990
C1601       C  0.15817874  0.94946601  0.38475413    -0.02540
C1602       C  0.16825890  0.96999100  0.42146602     0.04280
N1603       N  0.19695893  0.47412544  0.42935328     0.66780
H1604       H  0.15806583  0.50066811  0.48079711     0.15680
H1605       H  0.12035901  0.92508499  0.36471259     0.15390
N1606       N  0.08330352  0.94877442  0.41795774     0.74490
O1607       O  0.21265551  0.48289945  0.39680446    -0.38960
O1608       O  0.20624395  0.97222035  0.47034341    -0.38900
O1609       O  0.06451989  0.96962656  0.42097615    -0.39610
O1610       O  0.07705729  0.91950314  0.41042620    -0.39680
C1611       C  0.20485881  0.87359468  0.45286476    -0.11960
C1612       C  0.23334709  0.87540889  0.44892216     0.05050
C1613       C  0.24398640  0.89519307  0.41282960    -0.07240
C1614       C  0.22608647  0.91192397  0.38226912    -0.07990
C1615       C  0.19717390  0.90896303  0.38391046    -0.02540
C1616       C  0.18691446  0.88952611  0.42170143     0.04280
N1617       N  0.15832087  0.88726331  0.43185286     0.66780
H1618       H  0.19619949  0.85941131  0.48102312     0.15680
H1619       H  0.23553153  0.92829090  0.35796423     0.15390
N1620       N  0.27282185  0.90047161  0.40813768     0.74490
O1621       O  0.14256392  0.87279765  0.40401364    -0.38960
O1622       O  0.14979019  0.89421623  0.47243242    -0.38900
O1623       O  0.28917508  0.87682827  0.40835277    -0.39610
O1624       O  0.28167635  0.92816637  0.39726378    -0.39680
C1625       C  0.15047157  0.61841940  0.83450316    -0.11960
C1626       C  0.15760940  0.65128872  0.82498618     0.05050
C1627       C  0.14253746  0.66628414  0.78801500    -0.07240
C1628       C  0.12409974  0.64868214  0.76094172    -0.07990
C1629       C  0.11754351  0.61647490  0.77005102    -0.02540
C1630       C  0.13001840  0.60133359  0.80890052     0.04280
N1631       N  0.12202495  0.56931740  0.82360841     0.66780
H1632       H  0.15926264  0.60639864  0.86425530     0.15680
H1633       H  0.11417485  0.66095820  0.73216730     0.15390
N1634       N  0.14433932  0.70006472  0.77782710     0.74490
O1635       O  0.13754522  0.55280242  0.84911844    -0.38960
O1636       O  0.09792405  0.55959380  0.81812845    -0.38900
O1637       O  0.15673315  0.70841287  0.74106195    -0.39610
O1638       O  0.12553792  0.71832021  0.79299501    -0.39680
C1639       C  0.13598172  0.74727636  0.90901846    -0.11960
C1640       C  0.11694037  0.73049690  0.93624855     0.05050
C1641       C  0.11585505  0.69657826  0.93385522    -0.07240
C1642       C  0.13436926  0.68017017  0.90537457    -0.07990
C1643       C  0.15591852  0.69592485  0.88121040    -0.02540
C1644       C  0.15552429  0.73070437  0.88135824     0.04280
N1645       N  0.17468584  0.75007079  0.85600725     0.66780
H1646       H  0.13653852  0.77353874  0.91110241     0.15680
H1647       H  0.13354014  0.65397339  0.90598322     0.15390
N1648       N  0.09790141  0.67816266  0.96351019     0.74490
O1649       O  0.17448130  0.75013473  0.81195403    -0.38960
O1650       O  0.18668804  0.77290708  0.87688348    -0.38900
O1651       O  0.10488762  0.65038688  0.97759012    -0.39610
O1652       O  0.07539137  0.68981603  0.97694224    -0.39680
C1653       C  0.20109054  0.63457319  0.97975709    -0.11960
C1654       C  0.21889200  0.61031866  0.96483930     0.05050
C1655       C  0.22287203  0.60581538  0.91594274    -0.07240
C1656       C  0.20859004  0.62566355  0.88393481    -0.07990
C1657       C  0.19103089  0.65117906  0.89825961    -0.02540
C1658       C  0.18853408  0.65607372  0.94845046     0.04280
N1659       N  0.17640249  0.68424440  0.96995491     0.66780
H1660       H  0.19936578  0.63938521  0.01700152     0.15680
H1661       H  0.21145642  0.62141276  0.84682415     0.15390
N1662       N  0.24144772  0.58151495  0.89796513     0.74490
O1663       O  0.16024858  0.68056079  0.00401168    -0.38960
O1664       O  0.18743031  0.71157468  0.96474169    -0.38900
O1665       O  0.24700216  0.55655418  0.92143624    -0.39610
O1666       O  0.25097187  0.58377803  0.85701573    -0.39680
C1667       C  0.23861692  0.72794789  0.81457601    -0.11960
C1668       C  0.23891117  0.72152488  0.76621145     0.05050
C1669       C  0.22323959  0.69452759  0.75085064    -0.07240
C1670       C  0.20518647  0.67877788  0.78140959    -0.07990
C1671       C  0.20129463  0.68821351  0.82859690    -0.02540
C1672       C  0.22167616  0.71022888  0.84603698     0.04280
N1673       N  0.22716258  0.71356353  0.89495742     0.66780
H1674       H  0.25226836  0.74620594  0.82840181     0.15680
H1675       H  0.19453422  0.65811465  0.76714901     0.15390
N1676       N  0.22629588  0.68125524  0.70466621     0.74490
O1677       O  0.23822405  0.69006031  0.91565151    -0.38960
O1678       O  0.23028054  0.74160111  0.91208808    -0.38900
O1679       O  0.24932592  0.67100201  0.69146773    -0.39610
O1680       O  0.20552691  0.67435688  0.68073174    -0.39680
C1681       C  0.10416854  0.82621394  0.70031980    -0.11960
C1682       C  0.09552817  0.85750839  0.71320662     0.05050
C1683       C  0.07626889  0.87300347  0.68429951    -0.07240
C1684       C  0.06434962  0.85569925  0.64648806    -0.07990
C1685       C  0.06943816  0.82217230  0.63891239    -0.02540
C1686       C  0.09160736  0.80844426  0.66466909     0.04280
N1687       N  0.10057741  0.77559923  0.65809015     0.66780
H1688       H  0.12013001  0.81439104  0.72008426     0.15680
H1689       H  0.05082647  0.86873394  0.62377913     0.15390
N1690       N  0.06924746  0.90637067  0.69187915     0.74490
O1691       O  0.12443760  0.77030947  0.64321531    -0.38960
O1692       O  0.08761202  0.75274605  0.67702064    -0.38900
O1693       O  0.08755905  0.92667749  0.70141757    -0.39610
O1694       O  0.04523722  0.91620264  0.68512661    -0.39680
C1695       C  0.08363389  0.98050243  0.02115102    -0.11960
C1696       C  0.08015940  0.99045695  0.97465216     0.05050
C1697       C  0.06550165  0.51899519  0.96646070    -0.07240
C1698       C  0.05466625  0.53660046  0.00451288    -0.07990
C1699       C  0.06039541  0.52931350  0.05238334    -0.02540
C1700       C  0.07432571  0.99918551  0.05964579     0.04280
N1701       N  0.07769246  0.98568520  0.10539872     0.66780
H1702       H  0.09539443  0.95879896  0.02780020     0.15680
H1703       H  0.04103326  0.55555700  0.99447702     0.15390
N1704       N  0.06275520  0.53167303  0.91989871     0.74490
O1705       O  0.06782391  0.95817975  0.11436620    -0.38960
O1706       O  0.09178477  0.99992510  0.13598453    -0.38900
O1707       O  0.06011040  0.51286075  0.88521006    -0.39610
O1708       O  0.06307147  0.56192145  0.91325729    -0.39680
C1709       C  0.27925934  0.85487448  0.06125930    -0.11960
C1710       C  0.28558268  0.82147191  0.05407630     0.05050
C1711       C  0.28021778  0.80990249  0.00723388    -0.07240
C1712       C  0.27183123  0.83113251  0.97153543    -0.07990
C1713       C  0.26480626  0.86326438  0.98031759    -0.02540
C1714       C  0.26798461  0.87499048  0.02643824     0.04280
N1715       N  0.25834093  0.90671741  0.03933528     0.66780
H1716       H  0.28133088  0.86549448  0.09563501     0.15680
H1717       H  0.26700150  0.82098850  0.93744965     0.15390
N1718       N  0.27676849  0.77665253  0.99564571     0.74490
O1719       O  0.25355882  0.91388538  0.08149726    -0.38960
O1720       O  0.25588235  0.92837650  0.00891825    -0.38900
O1721       O  0.25351469  0.76468655  0.00282544    -0.39610
O1722       O  0.29086896  0.76505356  0.96242841    -0.39680
C1723       C  0.28170869  0.51808706  0.73577737    -0.11960
C1724       C  0.26441293  0.99317864  0.72317433     0.05050
C1725       C  0.26437530  0.98348592  0.67573145    -0.07240
C1726       C  0.27780061  0.00219722  0.64119501    -0.07990
C1727       C  0.29306289  0.53022976  0.65224996    -0.02540
C1728       C  0.29816034  0.53405451  0.70259443     0.04280
N1729       N  0.32156570  0.54981365  0.72252507     0.66780
H1730       H  0.28379479  0.52370408  0.77267621     0.15680
H1731       H  0.27730649  0.99363654  0.60532919     0.15390
N1732       N  0.25515319  0.95187164  0.66328906     0.74490
O1733       O  0.31891096  0.56561980  0.76032201    -0.38960
O1734       O  0.34507477  0.54014753  0.71146880    -0.38900
O1735       O  0.23174028  0.94235806  0.67525117    -0.39610
O1736       O  0.27258207  0.93147731  0.64906294    -0.39680
C1737       C  0.35075942  0.58112525  0.62643272    -0.11960
C1738       C  0.32226192  0.57950813  0.63428141     0.05050
C1739       C  0.31096644  0.60235634  0.66762174    -0.07240
C1740       C  0.32870551  0.61986000  0.69708455    -0.07990
C1741       C  0.35696860  0.61585450  0.69450228    -0.02540
C1742       C  0.36809018  0.59857587  0.65619880     0.04280
N1743       N  0.39696786  0.59650468  0.64871461     0.66780
H1744       H  0.36030536  0.56787315  0.59813998     0.15680
H1745       H  0.32021615  0.63479983  0.72491993     0.15390
N1746       N  0.28229231  0.60365269  0.67886147     0.74490
O1747       O  0.40797334  0.56921919  0.64132291    -0.38960
O1748       O  0.41034176  0.62188878  0.64006605    -0.38900
O1749       O  0.27481084  0.60463553  0.72118896    -0.39610
O1750       O  0.26508647  0.61082490  0.64805103    -0.39680
C1751       C  0.48335239  0.59866368  0.05647083    -0.11960
C1752       C  0.49444102  0.61554692  0.01897134     0.05050
C1753       C  0.02282052  0.61864698  0.01517503    -0.07240
C1754       C  0.03960315  0.60111567  0.04534680    -0.07990
C1755       C  0.02859878  0.57749932  0.07571508    -0.02540
C1756       C  0.50001166  0.58047728  0.08615610     0.04280
N1757       N  0.48717792  0.56611826  0.12608865     0.66780
H1758       H  0.46146835  0.59866122  0.06175897     0.15680
H1759       H  0.06145047  0.60244396  0.04017080     0.15390
N1760       N  0.03476473  0.63760781  0.97866804     0.74490
O1761       O  0.49357750  0.57567540  0.16656150    -0.38960
O1762       O  0.46526803  0.55054035  0.12087570    -0.38900
O1763       O  0.02497299  0.66502562  0.96859963    -0.39610
O1764       O  0.05369144  0.62581769  0.95382141    -0.39680
C1765       C  0.33126604  0.73165870  0.02299365    -0.11960
C1766       C  0.35844948  0.74107350  0.02414009     0.05050
C1767       C  0.36732750  0.76096878  0.06113331    -0.07240
C1768       C  0.34748777  0.77575772  0.08984299    -0.07990
C1769       C  0.31917924  0.77405110  0.07935852    -0.02540
C1770       C  0.31198954  0.74526269  0.05366110     0.04280
N1771       N  0.28730042  0.72701048  0.06107248     0.66780
H1772       H  0.32524008  0.71254664  0.99897496     0.15680
H1773       H  0.35475852  0.78913678  0.11969806     0.15390
N1774       N  0.39576075  0.76729931  0.06946179     0.74490
O1775       O  0.27741687  0.71104244  0.02732696    -0.38960
O1776       O  0.28229478  0.71662242  0.10146861    -0.38900
O1777       O  0.41245676  0.76924824  0.03590605    -0.39610
O1778       O  0.40387781  0.77382365  0.11028512    -0.39680
C1779       C  0.01387570  0.76095313  0.71657818    -0.11960
C1780       C  0.49306947  0.74269298  0.69642903     0.05050
C1781       C  0.49227249  0.74109674  0.64684847    -0.07240
C1782       C  0.51262524  0.75737342  0.62020738    -0.07990
C1783       C  0.03243380  0.77822706  0.64079853    -0.02540
C1784       C  0.03139560  0.78035798  0.69118322     0.04280
N1785       N  0.04461478  0.80442734  0.71930159     0.66780
H1786       H  0.01544163  0.76309792  0.75424209     0.15680
H1787       H  0.51168179  0.75565008  0.58245958     0.15390
N1788       N  0.47047583  0.72504788  0.62271532     0.74490
O1789       O  0.06048736  0.79486923  0.75106191    -0.38960
O1790       O  0.03258731  0.83122657  0.72542745    -0.38900
O1791       O  0.44609812  0.73127095  0.63380547    -0.39610
O1792       O  0.47515524  0.71052871  0.58449833    -0.39680
C1793       C  0.33759672  0.84387613  0.10937882    -0.11960
C1794       C  0.31466285  0.82737951  0.12858859     0.05050
C1795       C  0.30821619  0.83602006  0.17595590    -0.07240
C1796       C  0.32739964  0.85237305  0.20378741    -0.07990
C1797       C  0.35271466  0.86320140  0.18656212    -0.02540
C1798       C  0.35705121  0.86028922  0.13762746     0.04280
N1799       N  0.38138824  0.87229131  0.11600916     0.66780
H1800       H  0.34183337  0.84121587  0.07232632     0.15680
H1801       H  0.32187246  0.85725988  0.23986397     0.15390
N1802       N  0.28163918  0.83149611  0.19590263     0.74490
O1803       O  0.39419617  0.85474219  0.08695115    -0.38960
O1804       O  0.38748086  0.90191968  0.11972037    -0.38900
O1805       O  0.27926647  0.82112553  0.23718523    -0.39610
O1806       O  0.26133044  0.84462401  0.17687182    -0.39680
C1807       C  0.49764673  0.98526656  0.14344685    -0.11960
C1808       C  0.50081252  0.98926221  0.19193753     0.05050
C1809       C  0.52174804  0.51034578  0.20758564    -0.07240
C1810       C  0.53833119  0.52632470  0.17565505    -0.07990
C1811       C  0.03291118  0.52661070  0.12728482    -0.02540
C1812       C  0.01291674  0.00370325  0.11102223     0.04280
N1813       N  0.00785444  0.99815100  0.06215428     0.66780
H1814       H  0.98242977  0.96856299  0.13038490     0.15680
H1815       H  0.55483757  0.53989823  0.19067205     0.15390
N1816       N  0.52537058  0.51846356  0.25592928     0.74490
O1817       O  0.00786136  0.96947717  0.04640176    -0.38960
O1818       O  0.99802756  0.02035653  0.03720063    -0.38900
O1819       O  0.54796872  0.51286400  0.27516672    -0.39610
O1820       O  0.50924069  0.53859846  0.27479257    -0.39680
C1821       C  0.49051976  0.85599961  0.55865722    -0.11960
C1822       C  0.49077967  0.84829022  0.51067982     0.05050
C1823       C  0.50923932  0.82355498  0.49604015    -0.07240
C1824       C  0.52798905  0.81022667  0.52726255    -0.07990
C1825       C  0.02947342  0.81884058  0.57516282    -0.02540
C1826       C  0.00817372  0.84046658  0.59100768     0.04280
N1827       N  0.00218193  0.84520928  0.63959294     0.66780
H1828       H  0.47563170  0.87330068  0.57173809     0.15680
H1829       H  0.54047628  0.79103701  0.51286199     0.15390
N1830       N  0.50868825  0.80981209  0.44988383     0.74490
O1831       O  0.00233948  0.87372253  0.65596080    -0.38960
O1832       O  0.98747832  0.82445106  0.65975213    -0.38900
O1833       O  0.53075944  0.80578649  0.42770952    -0.39610
O1834       O  0.48775980  0.79470082  0.43656964    -0.39680
C1835       C  0.36160665  0.99383280  0.55347794    -0.11960
C1836       C  0.35838772  0.99879265  0.50522408     0.05050
C1837       C  0.33613145  0.51839186  0.49175255    -0.07240
C1838       C  0.31901123  0.53307671  0.52531668    -0.07990
C1839       C  0.32267556  0.53031431  0.57457169    -0.02540
C1840       C  0.34430248  0.50852656  0.58769777     0.04280
N1841       N  0.34982726  0.50074487  0.63531482     0.66780
H1842       H  0.37787090  0.97808994  0.56520777     0.15680
H1843       H  0.30270556  0.54705839  0.51052978     0.15390
N1844       N  0.32973688  0.02333201  0.44358760     0.74490
O1845       O  0.33475169  0.48042760  0.65560526    -0.38960
O1846       O  0.37382460  0.50443529  0.65013512    -0.38900
O1847       O  0.31619400  0.00203996  0.42204148    -0.39610
O1848       O  0.33192600  0.55131340  0.42635648    -0.39680
C1849       C  0.39455618  0.93527274  0.92055702    -0.11960
C1850       C  0.41856670  0.94675200  0.89924120     0.05050
C1851       C  0.43300001  0.97118130  0.92567704    -0.07240
C1852       C  0.42056611  0.48734317  0.96418203    -0.07990
C1853       C  0.39619693  0.97605638  0.98319367    -0.02540
C1854       C  0.38502076  0.94725164  0.96352985     0.04280
N1855       N  0.36469553  0.92891232  0.98824341     0.66780
H1856       H  0.38406092  0.91458663  0.90597650     0.15680
H1857       H  0.43056685  0.50798594  0.98021259     0.15390
N1858       N  0.46105183  0.47806230  0.91769073     0.74490
O1859       O  0.34765850  0.91183007  0.96619077    -0.38960
O1860       O  0.36658524  0.92566040  0.03195233    -0.38900
O1861       O  0.46745466  0.50560618  0.90219368    -0.39610
O1862       O  0.47826147  0.46307580  0.94215447    -0.39680
C1863       C  0.44074785  0.98180757  0.81683715    -0.11960
C1864       C  0.44388267  0.94769047  0.81755009     0.05050
C1865       C  0.45762029  0.93341534  0.77832993    -0.07240
C1866       C  0.47402130  0.95261648  0.74998111    -0.07990
C1867       C  0.47423754  0.48636198  0.75470556    -0.02540
C1868       C  0.45456961  0.50120894  0.78403398     0.04280
N1869       N  0.44577231  0.53424497  0.77721156     0.66780
H1870       H  0.42651530  0.49358104  0.84037810     0.15680
H1871       H  0.98627446  0.94093106  0.72302441     0.15390
N1872       N  0.45502262  0.89988450  0.76570139     0.74490
O1873       O  0.42184357  0.54249374  0.78851642    -0.38960
O1874       O  0.46010427  0.55408472  0.75457989    -0.38900
O1875       O  0.44159760  0.89270801  0.72955524    -0.39610
O1876       O  0.97143426  0.87920802  0.78173078    -0.39680
C1877       C  0.41082297  0.87319185  0.81908980    -0.11960
C1878       C  0.40784766  0.90685434  0.82904338     0.05050
C1879       C  0.38505619  0.92250794  0.80772367    -0.07240
C1880       C  0.36703632  0.90504667  0.77859321    -0.07990
C1881       C  0.37098533  0.87211264  0.76781463    -0.02540
C1882       C  0.39382060  0.85622922  0.78749318     0.04280
N1883       N  0.40197131  0.82418212  0.77236318     0.66780
H1884       H  0.42818378  0.86008999  0.83220171     0.15680
H1885       H  0.35022937  0.91788219  0.76255382     0.15390
N1886       N  0.38039802  0.95662901  0.81296480     0.74490
O1887       O  0.42679147  0.81605014  0.77271757    -0.38960
O1888       O  0.38468643  0.80381230  0.75842825    -0.38900
O1889       O  0.38393983  0.97465626  0.77796050    -0.39610
O1890       O  0.36517036  0.96660579  0.84571726    -0.39680
C1891       C  0.44069151  0.88164957  0.91334650    -0.11960
C1892       C  0.45198830  0.90387081  0.88093223     0.05050
C1893       C  0.48139802  0.90478598  0.87787245    -0.07240
C1894       C  0.99695500  0.88502683  0.90734144    -0.07990
C1895       C  0.48489276  0.86511568  0.94062086    -0.02540
C1896       C  0.45646177  0.86257522  0.94292225     0.04280
N1897       N  0.44323038  0.84080476  0.97501520     0.66780
H1898       H  0.41889865  0.87877564  0.91566562     0.15680
H1899       H  0.01899357  0.88678480  0.90615160     0.15390
N1900       N  0.49674228  0.92511910  0.84677714     0.74490
O1901       O  0.41953580  0.84698881  0.99002508    -0.38960
O1902       O  0.45393628  0.81381783  0.98476920    -0.38900
O1903       O  0.99817042  0.95521893  0.85432875    -0.39610
O1904       O  0.51481737  0.91224020  0.82106592    -0.39680
C1905       C  0.93076112  0.42662855  0.85634590    -0.02180
O1906       O  0.99099911  0.48068535  0.41634873    -0.74980
O1907       O  0.96135839  0.46228030  0.47222680    -0.53890
C1908       C  0.98251788  0.47856186  0.45799342     0.78750
O1909       O  0.88488042  0.49190253  0.26821884    -0.59580
O1910       O  0.90807765  0.46318990  0.21177478    -0.52610
C1911       C  0.89154185  0.48525350  0.22574255     0.70760
O1912       O  0.87463751  0.49058244  0.42620746    -0.74140
O1913       O  0.89526592  0.46175828  0.48384981    -0.54700
C1914       C  0.87747009  0.48280119  0.46968982     0.76770
O1915       O  0.98796896  0.47659600  0.26929944    -0.59280
O1916       O  0.96335579  0.45307336  0.21163251    -0.52400
C1917       C  0.98284104  0.47162874  0.22602323     0.73360
Zr1918     Zr  0.97160112  0.46377628  0.34648711     2.54710
O1919       O  0.97231763  0.02286787  0.34742428    -0.79850
O1920       O  0.52040882  0.45405779  0.33996458    -0.93270
Zr1921     Zr  0.89314506  0.47659048  0.34807239     2.64680
O1922       O  0.90119587  0.03463959  0.35321673    -0.98220
O1923       O  0.84443414  0.48475863  0.33845466    -0.80280
O1924       O  0.93241401  0.47199372  0.39448876    -0.83640
O1925       O  0.93284125  0.47051649  0.30109555    -2.18350
O1926       O  0.98963912  0.36712160  0.28718778    -0.67030
O1927       O  0.96336881  0.38424853  0.22652084    -0.51590
C1928       C  0.98459150  0.37049071  0.24398298     0.71740
O1929       O  0.86383209  0.36883390  0.41698422    -0.59940
O1930       O  0.88960063  0.39226240  0.47474560    -0.51910
C1931       C  0.86936225  0.37505206  0.45961844     0.73540
O1932       O  0.86661832  0.37159851  0.26504513    -0.71330
O1933       O  0.89484642  0.39176899  0.20953605    -0.50010
C1934       C  0.87294948  0.37652546  0.22198600     0.74930
O1935       O  0.97677498  0.35841835  0.43269868    -0.66660
O1936       O  0.95524792  0.38783705  0.48898092    -0.53860
C1937       C  0.97281323  0.36594846  0.47580276     0.73310
Zr1938     Zr  0.96100501  0.36920105  0.35382362     2.77540
O1939       O  0.94358540  0.31432331  0.34353395    -0.97410
O1940       O  0.50398602  0.33983425  0.35563821    -0.78230
Zr1941     Zr  0.88347319  0.38179597  0.34358638     2.70070
O1942       O  0.88136462  0.32280256  0.33994388    -0.79480
O1943       O  0.83422012  0.38889203  0.34309948    -0.98560
Zr1944     Zr  0.92644148  0.42468259  0.44103265     2.21500
Zr1945     Zr  0.92948530  0.42158564  0.25614171     2.11130
O1946       O  0.92388564  0.37311090  0.30070497    -2.47250
O1947       O  0.92061728  0.37562724  0.39667194    -0.79270
O1948       O  0.96744705  0.41525217  0.30575893    -0.71470
O1949       O  0.88751146  0.42898292  0.39123176    -2.32420
O1950       O  0.96701441  0.41788798  0.39601998    -2.28630
O1951       O  0.88852793  0.42952072  0.30001251    -0.73230
H1952       H  0.93555412  0.48934732  0.28172126     0.78770
H1953       H  0.87094568  0.43106992  0.40931056     0.79860
H1954       H  0.92260837  0.35422204  0.28064702     0.82080
H1955       H  0.98297108  0.41656626  0.41552279     0.79690
H1956       H  0.83637133  0.46316161  0.34427123     0.42720
H1957       H  0.83055502  0.40420942  0.31734026     0.41690
H1958       H  0.88848316  0.31549217  0.37044378     0.41370
H1959       H  0.95553902  0.30445117  0.31931557     0.39310
H1960       H  0.51756250  0.35617820  0.36569058     0.42440
H1961       H  0.52468753  0.43902736  0.36578678     0.37220
H1962       H  0.95961888  0.02932236  0.37285220     0.43340
H1963       H  0.91177456  0.03977733  0.32467961     0.39750
H1964       H  0.94841181  0.30291994  0.37269553     0.44670
H1965       H  0.52893268  0.47487983  0.34908968     0.43400
H1966       H  0.88306191  0.04446482  0.34781096     0.43530
H1967       H  0.82697876  0.36784480  0.33189130     0.43890
O1968       O  0.98185585  0.23957449  0.92657686    -0.74980
O1969       O  0.95965271  0.21208341  0.98443759    -0.53890
C1970       C  0.97812619  0.23127377  0.96872239     0.78750
O1971       O  0.86564237  0.23639583  0.79215982    -0.59580
O1972       O  0.89149167  0.21293239  0.73428860    -0.52610
C1973       C  0.87172343  0.23064237  0.74962369     0.70760
O1974       O  0.86922809  0.23553291  0.94502559    -0.74140
O1975       O  0.89609967  0.20981015  0.99787515    -0.54700
C1976       C  0.87616625  0.22837235  0.98695543     0.76770
O1977       O  0.97772585  0.23466654  0.77381164    -0.59280
O1978       O  0.95466423  0.20785794  0.71791172    -0.52400
C1979       C  0.97361537  0.22730797  0.73069399     0.73360
Zr1980     Zr  0.96360947  0.22599128  0.85389373     2.54710
O1981       O  0.95993626  0.28491609  0.85187765    -0.79850
O1982       O  0.51296644  0.23089061  0.84705621    -0.93270
Zr1983     Zr  0.88459636  0.22490988  0.86555600     2.64680
O1984       O  0.88868257  0.28364438  0.87125935    -0.98220
O1985       O  0.83523160  0.23049364  0.86821722    -0.80280
O1986       O  0.92573334  0.22715210  0.90640667    -0.83640
O1987       O  0.92269703  0.22706101  0.81314768    -2.18350
O1988       O  0.98179513  0.11796587  0.78621366    -0.67030
O1989       O  0.95734152  0.14363017  0.72960814    -0.51590
C1990       C  0.97665645  0.12517621  0.74399392     0.71740
O1991       O  0.87736950  0.10967928  0.93558281    -0.59940
O1992       O  0.90212640  0.13629836  0.99145042    -0.51910
C1993       C  0.88530560  0.11449042  0.97785541     0.73540
O1994       O  0.86732852  0.12098599  0.77597392    -0.71330
O1995       O  0.89453981  0.14566469  0.72234126    -0.50010
C1996       C  0.87408214  0.12819759  0.73341727     0.74930
O1997       O  0.98226372  0.12045836  0.93989638    -0.66660
O1998       O  0.95659061  0.14632257  0.99522396    -0.53860
C1999       C  0.97645330  0.12811683  0.98251590     0.73310
Zr2000     Zr  0.96471209  0.12983506  0.86127577     2.77540
O2001       O  0.96272929  0.07147739  0.87094543    -0.97410
O2002       O  0.51418680  0.12576924  0.85923666    -0.78230
Zr2003     Zr  0.88441716  0.12928874  0.85689521     2.70070
O2004       O  0.88120240  0.07061405  0.84850030    -0.79480
O2005       O  0.83511507  0.13276427  0.86408412    -0.98560
Zr2006     Zr  0.92588036  0.17763089  0.94871082     2.21500
Zr2007     Zr  0.92447701  0.17750924  0.76952792     2.11130
O2008       O  0.92515584  0.12794402  0.81276952    -2.47250
O2009       O  0.92427377  0.12869067  0.90422598    -0.79270
O2010       O  0.96515782  0.17678319  0.81329684    -0.71470
O2011       O  0.88404438  0.17585810  0.90679862    -2.32420
O2012       O  0.96572871  0.17893609  0.90146986    -2.28630
O2013       O  0.88423208  0.17821970  0.81614212    -0.73230
H2014       H  0.92198312  0.24585873  0.79317867     0.78770
H2015       H  0.86854496  0.17476744  0.92766053     0.79860
H2016       H  0.92549304  0.10924481  0.79223672     0.82080
H2017       H  0.98234671  0.17906785  0.91923239     0.79690
H2018       H  0.82868036  0.20953718  0.88065495     0.42720
H2019       H  0.82974398  0.14987526  0.84177665     0.41690
H2020       H  0.89251346  0.06179702  0.87404950     0.41370
H2021       H  0.94384120  0.06556836  0.86276878     0.39310
H2022       H  0.52054594  0.14848424  0.86191133     0.42440
H2023       H  0.52049293  0.21602202  0.87082720     0.37220
H2024       H  0.95544976  0.29144759  0.88440307     0.43340
H2025       H  0.90533202  0.28889795  0.85332739     0.39750
H2026       H  0.97426545  0.06257000  0.84545149     0.44670
H2027       H  0.51726104  0.25295144  0.85875768     0.43400
H2028       H  0.87352220  0.29217539  0.85219315     0.43530
H2029       H  0.82837917  0.11236089  0.84984135     0.43890
O2030       O  0.70537357  0.48013388  0.96963115    -0.74980
O2031       O  0.74244534  0.47026435  0.92304824    -0.53890
C2032       C  0.73055233  0.48141322  0.96088080     0.78750
O2033       O  0.63157367  0.36722396  0.94153813    -0.59580
O2034       O  0.59626835  0.38846041  0.89957440    -0.52610
C2035       C  0.60640486  0.37113798  0.93262353     0.70760
O2036       O  0.72053449  0.37118816  0.95308332    -0.74140
O2037       O  0.75418030  0.39925964  0.91546806    -0.54700
C2038       C  0.74557491  0.37906886  0.94697386     0.76770
O2039       O  0.62368704  0.48877071  0.94480547    -0.59280
O2040       O  0.59264517  0.45679114  0.90754315    -0.52400
C2041       C  0.59964206  0.47779441  0.93926693     0.73360
Zr2042     Zr  0.66911271  0.47858092  0.91757521     2.54710
O2043       O  0.65989745  0.49381621  0.99863103    -0.79850
O2044       O  0.67712468  0.03632213  0.90766962    -0.93270
Zr2045     Zr  0.67602478  0.38405464  0.92172704     2.64680
O2046       O  0.67470363  0.39388310  0.00584141    -0.98220
O2047       O  0.67796043  0.32561209  0.93101460    -0.80280
O2048       O  0.69890866  0.43338038  0.92190808    -0.83640
O2049       O  0.64591846  0.42892132  0.91835558    -2.18350
O2050       O  0.63073546  0.48947800  0.75916325    -0.67030
O2051       O  0.59591032  0.46361607  0.79707267    -0.51590
C2052       C  0.60562008  0.48297477  0.76607974     0.71740
O2053       O  0.72106055  0.37988771  0.75425650    -0.59940
O2054       O  0.75480962  0.39620671  0.80355362    -0.51910
C2055       C  0.74584242  0.38193048  0.76613234     0.73540
O2056       O  0.63665599  0.36820891  0.74895167    -0.71330
O2057       O  0.59986021  0.39223126  0.78349082    -0.50010
C2058       C  0.61116124  0.37396979  0.75143164     0.74930
O2059       O  0.71982716  0.48335512  0.74814395    -0.66660
O2060       O  0.75357003  0.46650796  0.79722484    -0.53860
C2061       C  0.74500087  0.47968323  0.75865659     0.73310
Zr2062     Zr  0.67573176  0.47706233  0.78500253     2.77540
O2063       O  0.67539168  0.48095878  0.70004373    -0.97410
O2064       O  0.68039215  0.03570907  0.79172198    -0.78230
Zr2065     Zr  0.67765612  0.38193461  0.78844970     2.70070
O2066       O  0.68001832  0.36582985  0.70649410    -0.79480
O2067       O  0.68142334  0.32472950  0.80738260    -0.98560
Zr2068     Zr  0.72960485  0.43321460  0.85752212     2.21500
Zr2069     Zr  0.61974978  0.42631626  0.84801581     2.11130
O2070       O  0.65016057  0.42841555  0.78256137    -2.47250
O2071       O  0.70294223  0.43037557  0.78845958    -0.79270
O2072       O  0.64396116  0.47711061  0.84809626    -0.71470
O2073       O  0.70495953  0.38296332  0.85612058    -2.32420
O2074       O  0.70102837  0.48091903  0.85468012    -2.28630
O2075       O  0.64867653  0.37937832  0.85341698    -0.73230
H2076       H  0.63443271  0.42832471  0.94580574     0.78770
H2077       H  0.71704269  0.36443160  0.85691882     0.79860
H2078       H  0.64043797  0.42818684  0.75331836     0.82080
H2079       H  0.71179765  0.50049276  0.85562536     0.79690
H2080       H  0.67473799  0.32199823  0.96478777     0.42720
H2081       H  0.66278755  0.31620506  0.80270326     0.41690
H2082       H  0.67967367  0.38651570  0.68904350     0.41370
H2083       H  0.66210874  0.46442849  0.68960435     0.39310
H2084       H  0.70017983  0.03987298  0.78886494     0.42440
H2085       H  0.69528921  0.03989467  0.92152689     0.37220
H2086       H  0.65700582  0.47300936  0.01509952     0.43340
H2087       H  0.65522088  0.39703094  0.01367786     0.39750
H2088       H  0.66667472  0.50209120  0.69326222     0.44670
H2089       H  0.66442819  0.04686973  0.93012523     0.43400
H2090       H  0.67952196  0.37276283  0.01990284     0.43530
H2091       H  0.69220694  0.31525709  0.78129292     0.43890
C2092       C  0.67712297  0.17225378  0.85834040    -0.02180
C2093       C  0.67761587  0.42940681  0.35013509    -0.02180
C2094       C  0.92920709  0.17829486  0.34841572    -0.02180
O2095       O  0.99035224  0.11671929  0.66767582    -0.74980
O2096       O  0.51382749  0.09275887  0.72711957    -0.53890
C2097       C  0.49476449  0.11074570  0.71063038     0.78750
O2098       O  0.98978222  0.99343179  0.53307206    -0.59580
O2099       O  0.51905358  0.01365629  0.47806690    -0.52610
C2100       C  0.99831530  0.99641577  0.49162939     0.70760
O2101       O  0.98682670  0.99759528  0.67858445    -0.74140
O2102       O  0.51045790  0.02299575  0.73651602    -0.54700
C2103       C  0.49146419  0.00405136  0.72149545     0.76770
O2104       O  0.00141248  0.11883463  0.51686415    -0.59280
O2105       O  0.52440722  0.08740839  0.46384851    -0.52400
C2106       C  0.50670350  0.10961363  0.47465034     0.73360
Zr2107     Zr  0.51469804  0.10630895  0.59721788     2.54710
O2108       O  0.96784186  0.12409252  0.58646529    -0.79850
O2109       O  0.52789023  0.16294868  0.60412875    -0.93270
Zr2110     Zr  0.50600700  0.01131340  0.60448582     2.64680
O2111       O  0.95691954  0.02042213  0.60459962    -0.98220
O2112       O  0.50418384  0.45221485  0.60305939    -0.80280
O2113       O  0.50780781  0.06025380  0.64578024    -0.83640
O2114       O  0.51063512  0.05728652  0.55548008    -2.18350
O2115       O  0.61185767  0.11023112  0.53900963    -0.67030
O2116       O  0.58721157  0.08633047  0.48037763    -0.51590
C2117       C  0.60658654  0.10447689  0.49614699     0.71740
O2118       O  0.59585377  0.99139608  0.68901194    -0.59940
O2119       O  0.56879737  0.01587182  0.74423607    -0.51910
C2120       C  0.58824646  0.99709762  0.73143740     0.73540
O2121       O  0.60665131  0.98778490  0.53074838    -0.71330
O2122       O  0.58514902  0.01620066  0.47323224    -0.50010
C2123       C  0.60327468  0.99575186  0.48749276     0.74930
O2124       O  0.60922196  0.10374840  0.69140030    -0.66660
O2125       O  0.57824501  0.08525859  0.74409590    -0.53860
C2126       C  0.60065168  0.09992887  0.73350493     0.73310
Zr2127     Zr  0.59328609  0.09463644  0.61226956     2.77540
O2128       O  0.64238617  0.08557436  0.61415070    -0.97410
O2129       O  0.59816315  0.15272094  0.62561636    -0.78230
Zr2130     Zr  0.58496432  0.99980966  0.60725846     2.70070
O2131       O  0.63251816  0.98395774  0.61420431    -0.79480
O2132       O  0.57296046  0.44267318  0.60175211    -0.98560
Zr2133     Zr  0.54578045  0.05421033  0.69591720     2.21500
Zr2134     Zr  0.55227873  0.05161329  0.51364512     2.11130
O2135       O  0.59079322  0.04767047  0.56431193    -2.47250
O2136       O  0.58786252  0.04695972  0.65526597    -0.79270
O2137       O  0.55657168  0.10078074  0.55810524    -0.71470
O2138       O  0.54421689  0.00474070  0.65213905    -2.32420
O2139       O  0.55144600  0.10247424  0.65129526    -2.28630
O2140       O  0.54632087  0.00394886  0.55909451    -0.73230
H2141       H  0.99523535  0.05836387  0.53466417     0.78770
H2142       H  0.54188911  0.48615174  0.67214972     0.79860
H2143       H  0.60756016  0.04648456  0.54665685     0.82080
H2144       H  0.55203612  0.12130708  0.67154853     0.79690
H2145       H  0.50517758  0.44552323  0.63616541     0.42720
H2146       H  0.56413291  0.44027312  0.57086769     0.41690
H2147       H  0.64277191  0.00426445  0.60881942     0.41370
H2148       H  0.64664878  0.07211489  0.58624449     0.39310
H2149       H  0.57970359  0.16083352  0.63338977     0.42440
H2150       H  0.51827998  0.17101684  0.63243400     0.37220
H2151       H  0.95758520  0.10380576  0.58069768     0.43340
H2152       H  0.95334807  0.03391526  0.57676220     0.39750
H2153       H  0.65051194  0.10700869  0.60736405     0.44670
H2154       H  0.01852539  0.17367087  0.57783120     0.43400
H2155       H  0.94886534  0.99903749  0.59697681     0.43530
H2156       H  0.59062662  0.43125650  0.59814120     0.43890
O2157       O  0.99813091  0.36070270  0.01873387    -0.74980
O2158       O  0.51978731  0.32949344  0.96405927    -0.53890
C2159       C  0.50210887  0.35076687  0.97661524     0.78750
O2160       O  0.61439218  0.36336719  0.16993932    -0.59580
O2161       O  0.59005679  0.34052427  0.22946311    -0.52610
C2162       C  0.60932416  0.35845647  0.21367400     0.70760
O2163       O  0.59810946  0.36272175  0.00991483    -0.74140
O2164       O  0.57237342  0.33498266  0.95686151    -0.54700
C2165       C  0.58998246  0.35631154  0.96807570     0.76770
O2166       O  0.99845036  0.36318000  0.16966561    -0.59280
O2167       O  0.52455101  0.34122442  0.22735199    -0.52400
C2168       C  0.50414338  0.35766017  0.21199143     0.73360
Zr2169     Zr  0.51632703  0.35087483  0.09633851     2.54710
O2170       O  0.52426639  0.40903824  0.09445442    -0.79850
O2171       O  0.96719507  0.35972727  0.09980972    -0.93270
Zr2172     Zr  0.59570116  0.34942126  0.09259131     2.64680
O2173       O  0.60359459  0.40769414  0.09080767    -0.98220
O2174       O  0.64440710  0.34217284  0.08000302    -0.80280
O2175       O  0.55478981  0.34923004  0.04880053    -0.83640
O2176       O  0.55686554  0.35338356  0.14152386    -2.18350
O2177       O  0.00286072  0.24752029  0.19190787    -0.67030
O2178       O  0.52673273  0.27734207  0.24414094    -0.51590
C2179       C  0.50745478  0.25726775  0.23390961     0.71740
O2180       O  0.60865154  0.24075701  0.01536592    -0.59940
O2181       O  0.58202491  0.26626803  0.96178003    -0.51910
C2182       C  0.60175407  0.24750505  0.97321565     0.73540
O2183       O  0.61693485  0.24852487  0.16751671    -0.71330
O2184       O  0.59089492  0.27099804  0.22591139    -0.50010
C2185       C  0.61096221  0.25386472  0.21023902     0.74930
O2186       O  0.99317617  0.23870654  0.04322113    -0.66660
O2187       O  0.51658329  0.26168814  0.98266451    -0.53860
C2188       C  0.49726709  0.24453142  0.00029174     0.73310
Zr2189     Zr  0.51616519  0.25447177  0.11106471     2.77540
O2190       O  0.52315045  0.19597628  0.11487194    -0.97410
O2191       O  0.96718366  0.24841771  0.12058631    -0.78230
Zr2192     Zr  0.59456774  0.25390506  0.09492690     2.70070
O2193       O  0.58708163  0.19582793  0.10339758    -0.79480
O2194       O  0.64289652  0.24223754  0.08335290    -0.98560
Zr2195     Zr  0.55127261  0.29825933  0.00982024     2.21500
Zr2196     Zr  0.55775696  0.30597729  0.18979936     2.11130
O2197       O  0.55781072  0.25484659  0.14998599    -2.47250
O2198       O  0.55260768  0.25037835  0.05592557    -0.79270
O2199       O  0.51660698  0.30543782  0.14738369    -0.71470
O2200       O  0.59414910  0.30072814  0.04858022    -2.32420
O2201       O  0.51296497  0.30014019  0.06036825    -2.28630
O2202       O  0.59656249  0.30285258  0.13923154    -0.73230
H2203       H  0.55727285  0.37302163  0.16011127     0.78770
H2204       H  0.60920708  0.30081505  0.02673675     0.79860
H2205       H  0.55887419  0.23688459  0.17144828     0.82080
H2206       H  0.99588728  0.30001340  0.04383705     0.79690
H2207       H  0.64944131  0.32376989  0.10032385     0.42720
H2208       H  0.65271783  0.25923510  0.10111568     0.41690
H2209       H  0.57845693  0.18895048  0.07374022     0.41370
H2210       H  0.52524789  0.19126942  0.14857621     0.39310
H2211       H  0.96038169  0.27095848  0.12394792     0.42440
H2212       H  0.95924704  0.34266621  0.07954788     0.37220
H2213       H  0.53552039  0.41230338  0.06605511     0.43340
H2214       H  0.61701245  0.41214403  0.11573570     0.39750
H2215       H  0.00527670  0.18652343  0.10657221     0.44670
H2216       H  0.96388820  0.38031036  0.08306960     0.43400
H2217       H  0.61397509  0.41124123  0.06156585     0.43530
H2218       H  0.64639831  0.22186984  0.10052177     0.43890
O2219       O  0.85369909  0.49072487  0.00890244    -0.74980
O2220       O  0.88779374  0.01571892  0.04812161    -0.53890
C2221       C  0.87879617  0.99579241  0.01619832     0.78750
O2222       O  0.76312151  0.10315620  0.99381373    -0.59580
O2223       O  0.72837111  0.08006760  0.03567324    -0.52610
C2224       C  0.73781136  0.09649709  0.00043291     0.70760
O2225       O  0.85064104  0.07999569  0.00109948    -0.74140
O2226       O  0.88378832  0.08893079  0.05231120    -0.54700
C2227       C  0.87286919  0.09386005  0.01247272     0.76770
O2228       O  0.77198926  0.49165170  0.99144809    -0.59280
O2229       O  0.73526577  0.01039075  0.03332259    -0.52400
C2230       C  0.74672320  0.99553823  0.99779529     0.73360
Zr2231     Zr  0.80969054  0.00151954  0.03796473     2.54710
O2232       O  0.81509047  0.98525332  0.95637363    -0.79850
O2233       O  0.80698302  0.44454148  0.05905178    -0.93270
Zr2234     Zr  0.80708695  0.09687028  0.03263132     2.64680
O2235       O  0.81195826  0.12184042  0.95608934    -0.98220
O2236       O  0.81438408  0.15411825  0.04946085    -0.80280
O2237       O  0.83474319  0.04962333  0.03547490    -0.83640
O2238       O  0.78207157  0.04841761  0.03263398    -2.18350
O2239       O  0.76071650  0.48979462  0.20015083    -0.67030
O2240       O  0.72662670  0.01361917  0.15833021    -0.51590
C2241       C  0.73545535  0.99555607  0.19258549     0.71740
O2242       O  0.84599792  0.11047206  0.20252062    -0.59940
O2243       O  0.88230163  0.08694973  0.16603772    -0.51910
C2244       C  0.87162024  0.10560291  0.19805634     0.73540
O2245       O  0.75873455  0.10786840  0.19407032    -0.71330
O2246       O  0.72522252  0.08287595  0.15180651    -0.50010
C2247       C  0.73390677  0.10093567  0.18587554     0.74930
O2248       O  0.84964227  0.49580564  0.19988073    -0.66660
O2249       O  0.88530523  0.01690917  0.15840844    -0.53860
C2250       C  0.87489104  0.00054232  0.19197609     0.73310
Zr2251     Zr  0.80514384  0.00355104  0.16995026     2.77540
O2252       O  0.80532523  0.00331423  0.25521718    -0.97410
O2253       O  0.80782477  0.44457145  0.16644840    -0.78230
Zr2254     Zr  0.80363321  0.09857432  0.16536188     2.70070
O2255       O  0.80076371  0.11043809  0.24873398    -0.79480
O2256       O  0.80282339  0.15626141  0.14831561    -0.98560
Zr2257     Zr  0.86168021  0.05148907  0.10469742     2.21500
Zr2258     Zr  0.75104897  0.04734429  0.09728486     2.11130
O2259       O  0.77804789  0.05023628  0.16656972    -2.47250
O2260       O  0.83110640  0.05181179  0.17017260    -0.79270
O2261       O  0.77866506  0.99928195  0.10125686    -0.71470
O2262       O  0.83382985  0.09994169  0.10129431    -2.32420
O2263       O  0.83586572  0.00217029  0.10593515    -2.28630
O2264       O  0.77661419  0.09734086  0.09714465    -0.73230
H2265       H  0.77300862  0.04793497  0.00295402     0.78770
H2266       H  0.84495378  0.11922781  0.10228340     0.79860
H2267       H  0.76682315  0.05014224  0.19432811     0.82080
H2268       H  0.84773051  0.48346928  0.10713472     0.79690
H2269       H  0.83302541  0.15843177  0.03772349     0.42720
H2270       H  0.78386175  0.16297165  0.15534955     0.41690
H2271       H  0.79997530  0.08885068  0.26368458     0.41370
H2272       H  0.79066949  0.01851961  0.26490691     0.39310
H2273       H  0.79029776  0.43766697  0.15270916     0.42440
H2274       H  0.82330236  0.43987130  0.07795700     0.37220
H2275       H  0.81763009  0.00584897  0.93922699     0.43340
H2276       H  0.80326064  0.10646292  0.93402436     0.39750
H2277       H  0.79861636  0.48156801  0.26415566     0.44670
H2278       H  0.81022719  0.43277985  0.02926957     0.43400
H2279       H  0.79983452  0.14108613  0.95661518     0.43530
H2280       H  0.81383122  0.16635526  0.17339140     0.43890
C2281       C  0.79832166  0.30149680  0.09695553    -0.02180
C2282       C  0.55073435  0.30006124  0.60762981    -0.02180
O2283       O  0.62259228  0.23680519  0.43642662    -0.74980
O2284       O  0.64750603  0.20825312  0.48923057    -0.53890
C2285       C  0.62843099  0.22899256  0.47867063     0.78750
O2286       O  0.61930496  0.11390896  0.26574088    -0.59580
O2287       O  0.64280677  0.14244362  0.21093860    -0.52610
C2288       C  0.62428626  0.12187402  0.22291811     0.70760
O2289       O  0.61774308  0.11516742  0.42000823    -0.74140
O2290       O  0.64453753  0.13685754  0.47758729    -0.54700
C2291       C  0.62420509  0.11991377  0.46257624     0.76770
O2292       O  0.62306534  0.24375855  0.28600973    -0.59280
O2293       O  0.64432562  0.21567379  0.22682677    -0.52400
C2294       C  0.62758627  0.23711801  0.24314119     0.73360
Zr2295     Zr  0.63818676  0.22237635  0.35770171     2.54710
O2296       O  0.58878318  0.21818649  0.35970633    -0.79850
O2297       O  0.63979698  0.28123401  0.36388238    -0.93270
Zr2298     Zr  0.63563868  0.12746183  0.34522480     2.64680
O2299       O  0.58617542  0.12868888  0.34459805    -0.98220
O2300       O  0.63564846  0.06864043  0.34527250    -0.80280
O2301       O  0.63760000  0.17296140  0.39724358    -0.83640
O2302       O  0.63508289  0.17697315  0.30560957    -2.18350
O2303       O  0.73272972  0.23383814  0.26806956    -0.67030
O2304       O  0.70649234  0.20949300  0.21256890    -0.51590
C2305       C  0.72628248  0.22818307  0.22528142     0.71740
O2306       O  0.73220061  0.10729542  0.42675233    -0.59940
O2307       O  0.70897629  0.13466427  0.48432867    -0.51910
C2308       C  0.72725775  0.11389592  0.47059610     0.73540
O2309       O  0.72285733  0.10828220  0.26403067    -0.71330
O2310       O  0.69864798  0.13630924  0.20912170    -0.50010
C2311       C  0.71602917  0.11480707  0.22142322     0.74930
O2312       O  0.73696093  0.23450697  0.41853468    -0.66660
O2313       O  0.71375622  0.20756172  0.47599701    -0.53860
C2314       C  0.73237248  0.22739994  0.46108291     0.73310
Zr2315     Zr  0.71789592  0.21860160  0.34614577     2.77540
O2316       O  0.76742130  0.21511817  0.34776753    -0.97410
O2317       O  0.71629778  0.27756560  0.34519570    -0.78230
Zr2318     Zr  0.71568265  0.12304407  0.34679238     2.70070
O2319       O  0.76505435  0.12526206  0.33929735    -0.79480
O2320       O  0.71726883  0.06407050  0.34862010    -0.98560
Zr2321     Zr  0.67846172  0.17202843  0.44176400     2.21500
Zr2322     Zr  0.67485338  0.17506591  0.25756911     2.11130
O2323       O  0.71656594  0.17097671  0.30036364    -2.47250
O2324       O  0.71777877  0.17085349  0.39240587    -0.79270
O2325       O  0.67645443  0.22254117  0.30573373    -0.71470
O2326       O  0.67560105  0.12413525  0.39285104    -2.32420
O2327       O  0.67972779  0.22115222  0.39826381    -2.28630
O2328       O  0.67550988  0.12525171  0.30014997    -0.73230
H2329       H  0.61871770  0.17836812  0.28714246     0.78770
H2330       H  0.67490523  0.10481660  0.41177664     0.79860
H2331       H  0.73205247  0.17023341  0.27943569     0.82080
H2332       H  0.68091088  0.23987880  0.41864481     0.79690
H2333       H  0.63253479  0.06237273  0.37822522     0.42720
H2334       H  0.71524099  0.05709536  0.31564287     0.41690
H2335       H  0.77110090  0.13793480  0.36687658     0.41370
H2336       H  0.77205394  0.19607168  0.32802817     0.39310
H2337       H  0.70702218  0.28285640  0.31552594     0.42440
H2338       H  0.64725012  0.28571576  0.39537644     0.37220
H2339       H  0.58505585  0.19808895  0.37737299     0.43340
H2340       H  0.58148812  0.14272787  0.31787755     0.39750
H2341       H  0.77387388  0.23409181  0.32984307     0.44670
H2342       H  0.62048134  0.28808960  0.36601437     0.43400
H2343       H  0.58068050  0.10661181  0.33462772     0.43530
H2344       H  0.73641330  0.05878272  0.35628021     0.43890
O2345       O  0.86072505  0.24085956  0.67369467    -0.74980
O2346       O  0.83576204  0.26490123  0.73224049    -0.53890
C2347       C  0.85484802  0.24636021  0.71635599     0.78750
O2348       O  0.85629044  0.36797554  0.53600391    -0.59580
O2349       O  0.83292361  0.34044066  0.47908234    -0.52610
C2350       C  0.85137636  0.36048180  0.49359536     0.70760
O2351       O  0.85730311  0.36562617  0.68854255    -0.74140
O2352       O  0.83575441  0.33500054  0.74361822    -0.54700
C2353       C  0.85341816  0.35657705  0.73114335     0.76770
O2354       O  0.85948892  0.24338032  0.52274682    -0.59280
O2355       O  0.83341292  0.26937692  0.46867286    -0.52400
C2356       C  0.85347746  0.25049706  0.48031923     0.73360
Zr2357     Zr  0.84257921  0.25624020  0.60107339     2.54710
O2358       O  0.89200627  0.26021178  0.59757380    -0.79850
O2359       O  0.84261046  0.19733692  0.59912609    -0.93270
Zr2360     Zr  0.84042120  0.35115751  0.61030937     2.64680
O2361       O  0.89007512  0.35034962  0.61169430    -0.98220
O2362       O  0.83612140  0.41001107  0.61269739    -0.80280
O2363       O  0.84251073  0.30230567  0.65186846    -0.83640
O2364       O  0.84132897  0.30490849  0.56011053    -2.18350
O2365       O  0.74477558  0.23712442  0.53752578    -0.67030
O2366       O  0.76791250  0.26426354  0.48014502    -0.51590
C2367       C  0.74965178  0.24391187  0.49494306     0.71740
O2368       O  0.75550077  0.36961470  0.68908998    -0.59940
O2369       O  0.77890624  0.34238313  0.74591668    -0.51910
C2370       C  0.76264314  0.36477474  0.73205107     0.73540
O2371       O  0.74562686  0.36450713  0.52884352    -0.71330
O2372       O  0.76912169  0.33786471  0.47143289    -0.50010
C2373       C  0.75077263  0.35840885  0.48517507     0.74930
O2374       O  0.74947396  0.23687604  0.68828720    -0.66660
O2375       O  0.77244836  0.26387960  0.74508839    -0.53860
C2376       C  0.75487889  0.24219668  0.73152884     0.73310
Zr2377     Zr  0.76311362  0.25351229  0.61049612     2.77540
O2378       O  0.71363131  0.25088838  0.61723244    -0.97410
O2379       O  0.77003748  0.19506307  0.60702168    -0.78230
Zr2380     Zr  0.75969166  0.34796215  0.60918787     2.70070
O2381       O  0.71380081  0.32685610  0.61953723    -0.79480
O2382       O  0.73490064  0.39911964  0.60353678    -0.98560
Zr2383     Zr  0.80274290  0.30156905  0.70000574     2.21500
Zr2384     Zr  0.80057498  0.30291975  0.51517405     2.11130
O2385       O  0.76068535  0.30067406  0.56340026    -2.47250
O2386       O  0.76110319  0.30098932  0.65690967    -0.79270
O2387       O  0.80156805  0.25389223  0.55896623    -0.71470
O2388       O  0.80054343  0.35046112  0.65464677    -2.32420
O2389       O  0.80412363  0.25360968  0.65228424    -2.28630
O2390       O  0.80003562  0.35113694  0.56334332    -0.73230
H2391       H  0.85737121  0.30549264  0.54052117     0.78770
H2392       H  0.80205235  0.36987366  0.67348964     0.79860
H2393       H  0.74437727  0.30028624  0.54466050     0.82080
H2394       H  0.80499455  0.23428170  0.67115359     0.79690
H2395       H  0.82156757  0.41502342  0.58998488     0.42720
H2396       H  0.74378339  0.41211582  0.57878459     0.41690
H2397       H  0.71103660  0.32605789  0.65381739     0.41370
H2398       H  0.70653868  0.26322788  0.59028779     0.39310
H2399       H  0.77456725  0.19031855  0.57390482     0.42440
H2400       H  0.83707922  0.19077628  0.63103628     0.37220
H2401       H  0.89653330  0.27849202  0.61876201     0.43340
H2402       H  0.89562943  0.33743377  0.58390926     0.39750
H2403       H  0.70901828  0.22799820  0.61022624     0.44670
H2404       H  0.86209486  0.19122485  0.59686122     0.43400
H2405       H  0.89557785  0.37284398  0.60430692     0.43530
H2406       H  0.71667145  0.39362757  0.59114162     0.43890
C2407       C  0.80475871  0.05238114  0.61020549    -0.02180
C2408       C  0.54864368  0.05080879  0.09445742    -0.02180
C2409       C  0.61708468  0.08687720  0.15037611    -0.11960
C2410       C  0.60635601  0.10715931  0.18577444     0.05050
C2411       C  0.57793824  0.11208759  0.18679143    -0.07240
C2412       C  0.56109595  0.09433731  0.15620826    -0.07990
C2413       C  0.57100484  0.07139511  0.12269826    -0.02540
C2414       C  0.60012899  0.07010266  0.11793023     0.04280
N2415       N  0.61330098  0.05338500  0.07998560     0.66780
H2416       H  0.63899731  0.08419643  0.14763763     0.15680
H2417       H  0.53947636  0.09831557  0.15929333     0.15390
N2418       N  0.56575867  0.13571622  0.21786341     0.74490
O2419       O  0.61043106  0.06395295  0.03898320    -0.38960
O2420       O  0.63301993  0.03458691  0.08833808    -0.38900
O2421       O  0.57742650  0.16251629  0.22527461    -0.39610
O2422       O  0.54174512  0.13183385  0.23278374    -0.39680
C2423       C  0.76919683  0.11320000  0.52050402    -0.11960
C2424       C  0.74496358  0.09786648  0.50777975     0.05050
C2425       C  0.73869272  0.06831770  0.53099498    -0.07240
C2426       C  0.75654956  0.05592056  0.56644717    -0.07990
C2427       C  0.78182760  0.07066707  0.57891082    -0.02540
C2428       C  0.78760690  0.10003143  0.55331686     0.04280
N2429       N  0.81281675  0.11680145  0.55801810     0.66780
H2430       H  0.77465499  0.13556535  0.50306982     0.15680
H2431       H  0.75066792  0.03362423  0.58260782     0.15390
N2432       N  0.71487364  0.04985108  0.51828062     0.74490
O2433       O  0.83252771  0.10932589  0.53156965    -0.38960
O2434       O  0.81299637  0.14379829  0.57894688    -0.38900
O2435       O  0.70472648  0.05211674  0.47793930    -0.39610
O2436       O  0.70530460  0.02894054  0.54588969    -0.39680
C2437       C  0.61059925  0.27952658  0.51873436    -0.12200
C2438       C  0.61121732  0.24548900  0.51634739     0.05050
C2439       C  0.59153167  0.22867572  0.54322197    -0.07240
C2440       C  0.57253084  0.24580641  0.57215000    -0.07990
C2441       C  0.57179705  0.28024498  0.57507491    -0.02540
C2442       C  0.59166735  0.29677957  0.54702451     0.04280
N2443       N  0.59318508  0.33147462  0.54679050     0.66780
H2444       H  0.62473548  0.29315493  0.49730887     0.15680
H2445       H  0.55850612  0.23158171  0.59262759     0.15390
N2446       N  0.58965096  0.19410607  0.53971085     0.74490
O2447       O  0.61337727  0.34521692  0.56547322    -0.38960
O2448       O  0.57871062  0.34731247  0.51858334    -0.38900
O2449       O  0.61089127  0.17690402  0.54049218    -0.39610
O2450       O  0.56675633  0.18058622  0.53573893    -0.39680
C2451       C  0.73210141  0.26208888  0.15292220    -0.11960
C2452       C  0.74379289  0.24427495  0.18937940     0.05050
C2453       C  0.77234105  0.24551922  0.19512465    -0.07240
C2454       C  0.78813410  0.26506588  0.16561508    -0.07990
C2455       C  0.77698987  0.28320329  0.12825518    -0.02540
C2456       C  0.74793751  0.28177417  0.12279619     0.04280
N2457       N  0.73337917  0.30153728  0.09025514     0.66780
H2458       H  0.71013067  0.26214874  0.14934766     0.15680
H2459       H  0.80996730  0.26525904  0.17089934     0.15390
N2460       N  0.78593800  0.22588499  0.22934387     0.74490
O2461       O  0.71617876  0.28817383  0.06376416    -0.38960
O2462       O  0.73023291  0.33125488  0.09962919    -0.38900
O2463       O  0.77827978  0.19711783  0.23649353    -0.39610
O2464       O  0.80779834  0.23559640  0.24775306    -0.39680
C2465       C  0.87616571  0.15198094  0.25345027    -0.11960
C2466       C  0.88828787  0.12410801  0.23333095     0.05050
C2467       C  0.91387578  0.11434377  0.25048338    -0.07240
C2468       C  0.92570536  0.13142940  0.28830167    -0.07990
C2469       C  0.91302878  0.15871881  0.31045228    -0.02540
C2470       C  0.88803988  0.16987126  0.29000582     0.04280
N2471       N  0.87449223  0.19969877  0.30372448     0.66780
H2472       H  0.85717669  0.16098864  0.23931178     0.15680
H2473       H  0.94572955  0.12367094  0.29909514     0.15390
N2474       N  0.92884406  0.08831478  0.22890245     0.74490
O2475       O  0.84878739  0.20090819  0.30480435    -0.38960
O2476       O  0.88754749  0.22585108  0.30829723    -0.38900
O2477       O  0.93453718  0.08978280  0.18591099    -0.39610
O2478       O  0.94139726  0.06814979  0.25396297    -0.39680
C2479       C  0.97035450  0.22018845  0.34218431    -0.11960
C2480       C  0.94725764  0.20520008  0.32008863     0.05050
C2481       C  0.94414139  0.21467282  0.27155839    -0.07240
C2482       C  0.96177424  0.23684704  0.25091051    -0.07990
C2483       C  0.98713530  0.24463179  0.26944460    -0.02540
C2484       C  0.49143578  0.23659756  0.31696386     0.04280
N2485       N  0.51718655  0.24230323  0.33946631     0.66780
H2486       H  0.97418192  0.21500529  0.37859822     0.15680
H2487       H  0.95695306  0.24436409  0.21561395     0.15390
N2488       N  0.92598302  0.20039238  0.23841051     0.74490
O2489       O  0.51856722  0.24313669  0.38352672    -0.38960
O2490       O  0.53907767  0.24083988  0.31627617    -0.38900
O2491       O  0.90767047  0.21814192  0.22099873    -0.39610
O2492       O  0.93512323  0.17740154  0.21347332    -0.39680
C2493       C  0.96079850  0.11956177  0.44344571    -0.11960
C2494       C  0.98879965  0.12398214  0.43767155     0.05050
C2495       C  0.49775465  0.14043332  0.39715455    -0.07240
C2496       C  0.97798147  0.15315923  0.36596838    -0.07990
C2497       C  0.94948205  0.15409761  0.37607296    -0.02540
C2498       C  0.94142108  0.13157225  0.41153177     0.04280
N2499       N  0.91603034  0.11457164  0.41022247     0.66780
H2500       H  0.95408491  0.10399630  0.47164008     0.15680
H2501       H  0.48528028  0.16309380  0.33345941     0.15390
N2502       N  0.52626172  0.14632599  0.38796093     0.74490
O2503       O  0.90785340  0.10323073  0.37175819    -0.38960
O2504       O  0.90702664  0.10180751  0.44726103    -0.38900
O2505       O  0.54385620  0.14297301  0.41961583    -0.39610
O2506       O  0.53352912  0.15903570  0.34984934    -0.39680
C2507       C  0.91574484  0.22621169  0.40573510    -0.11960
C2508       C  0.90862164  0.19547775  0.38600291     0.05050
C2509       C  0.88156063  0.18430987  0.40036922    -0.07240
C2510       C  0.86362671  0.20488017  0.42584387    -0.07990
C2511       C  0.87126934  0.23497410  0.44348033    -0.02540
C2512       C  0.89821166  0.24519553  0.43470840     0.04280
N2513       N  0.90850713  0.27456479  0.45564552     0.66780
H2514       H  0.93528639  0.23659744  0.39927055     0.15680
H2515       H  0.84364152  0.19578274  0.43532265     0.15390
N2516       N  0.87152027  0.15176797  0.39512775     0.74490
O2517       O  0.93336809  0.27681556  0.46620717    -0.38960
O2518       O  0.89303036  0.29856505  0.46309463    -0.38900
O2519       O  0.86435052  0.13749652  0.43214236    -0.39610
O2520       O  0.85910163  0.14375313  0.35841602    -0.39680
C2521       C  0.64114556  0.42458932  0.28742830    -0.11960
C2522       C  0.66008939  0.40772823  0.31580699     0.05050
C2523       C  0.66305144  0.37380630  0.30653602    -0.07240
C2524       C  0.64588860  0.35845372  0.27367301    -0.07990
C2525       C  0.62630900  0.37582101  0.24815212    -0.02540
C2526       C  0.62355684  0.40953366  0.25569038     0.04280
N2527       N  0.60257191  0.42898925  0.23373173     0.66780
H2528       H  0.63900144  0.45033071  0.29211935     0.15680
H2529       H  0.64835384  0.33266244  0.26715086     0.15390
N2530       N  0.68399702  0.35456767  0.32735734     0.74490
O2531       O  0.59694827  0.45691654  0.24955696    -0.38960
O2532       O  0.58905616  0.41860654  0.19939607    -0.38900
O2533       O  0.67737917  0.33243334  0.35537527    -0.39610
O2534       O  0.70710257  0.35307280  0.30798526    -0.39680
C2535       C  0.71126696  0.43371058  0.28165612    -0.11960
C2536       C  0.69359403  0.45082447  0.31236575     0.05050
C2537       C  0.68690454  0.48325854  0.29769320    -0.07240
C2538       C  0.69894676  0.99696161  0.25674743    -0.07990
C2539       C  0.71692987  0.47924572  0.22777346    -0.02540
C2540       C  0.72254744  0.44688918  0.24079610     0.04280
N2541       N  0.73943304  0.42647159  0.21192946     0.66780
H2542       H  0.71561746  0.40861243  0.28845982     0.15680
H2543       H  0.69452297  0.02198248  0.24813230     0.15390
N2544       N  0.66685972  0.00240422  0.32155611     0.74490
O2545       O  0.75527895  0.40601291  0.23016505    -0.38960
O2546       O  0.73616929  0.42621678  0.16824058    -0.38900
O2547       O  0.67427437  0.02065081  0.35461815    -0.39610
O2548       O  0.64481843  0.00875635  0.30096431    -0.39680
C2549       C  0.64994837  0.98508445  0.45358131    -0.11960
C2550       C  0.62160455  0.48026068  0.45170329     0.05050
C2551       C  0.61148727  0.45845373  0.41803874    -0.07240
C2552       C  0.62953517  0.44343949  0.38626830    -0.07990
C2553       C  0.65817794  0.44946448  0.38475264    -0.02540
C2554       C  0.66825860  0.46998850  0.42146524     0.04280
N2555       N  0.69695872  0.97412454  0.42935344     0.66780
H2556       H  0.65806579  0.00066740  0.48079746     0.15680
H2557       H  0.62035770  0.42508493  0.36471050     0.15390
N2558       N  0.58330281  0.44877443  0.41795690     0.74490
O2559       O  0.71265523  0.98290037  0.39680555    -0.38960
O2560       O  0.70624367  0.47221776  0.47034265    -0.38900
O2561       O  0.56451949  0.46962695  0.42097557    -0.39610
O2562       O  0.57705615  0.41950330  0.41042519    -0.39680
C2563       C  0.70485525  0.37358323  0.45285158    -0.11960
C2564       C  0.73334357  0.37539435  0.44890682     0.05050
C2565       C  0.74398339  0.39518187  0.41281872    -0.07240
C2566       C  0.72608435  0.41191818  0.38226339    -0.07990
C2567       C  0.69717175  0.40895954  0.38390555    -0.02540
C2568       C  0.68691156  0.38952022  0.42169323     0.04280
N2569       N  0.65831805  0.38725994  0.43184604     0.66780
H2570       H  0.69619539  0.35939871  0.48100822     0.15680
H2571       H  0.73553022  0.42828693  0.35796186     0.15390
N2572       N  0.77281890  0.40045834  0.40812721     0.74490
O2573       O  0.64256012  0.37279411  0.40400861    -0.38960
O2574       O  0.64978854  0.39421394  0.47242594    -0.38900
O2575       O  0.78916903  0.37681165  0.40831401    -0.39610
O2576       O  0.78167526  0.42815627  0.39727433    -0.39680
C2577       C  0.65047216  0.11841986  0.83450176    -0.11960
C2578       C  0.65760974  0.15128924  0.82498465     0.05050
C2579       C  0.64253741  0.16628452  0.78801380    -0.07240
C2580       C  0.62409961  0.14868233  0.76094087    -0.07990
C2581       C  0.61754359  0.11647504  0.77005032    -0.02540
C2582       C  0.63001886  0.10133386  0.80889962     0.04280
N2583       N  0.62202564  0.06931766  0.82360788     0.66780
H2584       H  0.65926350  0.10639921  0.86425373     0.15680
H2585       H  0.61417444  0.16095832  0.73216666     0.15390
N2586       N  0.64433885  0.20006517  0.77782608     0.74490
O2587       O  0.63754577  0.05280328  0.84911895    -0.38960
O2588       O  0.59792498  0.05959347  0.81812710    -0.38900
O2589       O  0.65673235  0.20841362  0.74106074    -0.39610
O2590       O  0.62553737  0.21832034  0.79299449    -0.39680
C2591       C  0.63598155  0.24727642  0.90901776    -0.11960
C2592       C  0.61694046  0.23049666  0.93624803     0.05050
C2593       C  0.61585542  0.19657800  0.93385448    -0.07240
C2594       C  0.63436966  0.18017023  0.90537347    -0.07990
C2595       C  0.65591867  0.19592524  0.88120905    -0.02540
C2596       C  0.65552412  0.23070474  0.88135715     0.04280
N2597       N  0.67468542  0.25007140  0.85600606     0.66780
H2598       H  0.63653814  0.27353880  0.91110183     0.15680
H2599       H  0.63354078  0.15397344  0.90598199     0.15390
N2600       N  0.59790204  0.17816207  0.96350951     0.74490
O2601       O  0.67448052  0.25013570  0.81195285    -0.38960
O2602       O  0.68668784  0.27290745  0.87688245    -0.38900
O2603       O  0.60488848  0.15038625  0.97758895    -0.39610
O2604       O  0.57539197  0.18981513  0.97694195    -0.39680
C2605       C  0.70109091  0.13457404  0.97975558    -0.11960
C2606       C  0.71889220  0.11031928  0.96483798     0.05050
C2607       C  0.72287240  0.10581609  0.91594140    -0.07240
C2608       C  0.70859063  0.12566443  0.88393332    -0.07990
C2609       C  0.69103147  0.15117997  0.89825796    -0.02540
C2610       C  0.68853467  0.15607469  0.94844883     0.04280
N2611       N  0.67640325  0.18424552  0.96995320     0.66780
H2612       H  0.69936610  0.13938609  0.01700000     0.15680
H2613       H  0.71145711  0.12141366  0.84682267     0.15390
N2614       N  0.74144801  0.08151554  0.89796392     0.74490
O2615       O  0.66024948  0.18056215  0.00401021    -0.38960
O2616       O  0.68743110  0.21157574  0.96473954    -0.38900
O2617       O  0.74700225  0.05655470  0.92143504    -0.39610
O2618       O  0.75097235  0.08377862  0.85701465    -0.39680
C2619       C  0.73861645  0.22794976  0.81457326    -0.11960
C2620       C  0.73891048  0.22152692  0.76620862     0.05050
C2621       C  0.72323909  0.19452951  0.75084805    -0.07240
C2622       C  0.70518631  0.17877934  0.78140714    -0.07990
C2623       C  0.70129471  0.18821463  0.82859473    -0.02540
C2624       C  0.72167615  0.21023029  0.84603452     0.04280
N2625       N  0.72716296  0.21356480  0.89495486     0.66780
H2626       H  0.75226776  0.24620802  0.82839889     0.15680
H2627       H  0.69453407  0.15811617  0.76714629     0.15390
N2628       N  0.72629534  0.18125749  0.70466356     0.74490
O2629       O  0.73822443  0.19006144  0.91564862    -0.38960
O2630       O  0.73028117  0.24160231  0.91208564    -0.38900
O2631       O  0.74932431  0.17099901  0.69146793    -0.39610
O2632       O  0.70552631  0.17436492  0.68072583    -0.39680
C2633       C  0.60416809  0.32621397  0.70032073    -0.11960
C2634       C  0.59552764  0.35750842  0.71320738     0.05050
C2635       C  0.57626834  0.37300336  0.68430013    -0.07240
C2636       C  0.56434915  0.35569901  0.64648870    -0.07990
C2637       C  0.56943775  0.32217207  0.63891317    -0.02540
C2638       C  0.59160696  0.30844416  0.66467003     0.04280
N2639       N  0.60057713  0.27559918  0.65809109     0.66780
H2640       H  0.62012961  0.31439123  0.72008526     0.15680
H2641       H  0.55082606  0.36873363  0.62377960     0.15390
N2642       N  0.56924683  0.40637057  0.69187954     0.74490
O2643       O  0.62443735  0.27030954  0.64321631    -0.38960
O2644       O  0.58761175  0.25274591  0.67702137    -0.38900
O2645       O  0.58755831  0.42667738  0.70141856    -0.39610
O2646       O  0.54523668  0.41620256  0.68512609    -0.39680
C2647       C  0.58363253  0.48050173  0.02115192    -0.11960
C2648       C  0.58015819  0.49045628  0.97465306     0.05050
C2649       C  0.56550148  0.01899486  0.96646111    -0.07240
C2650       C  0.55466597  0.03660001  0.00451332    -0.07990
C2651       C  0.56039508  0.02931299  0.05238379    -0.02540
C2652       C  0.57432485  0.49918517  0.05964664     0.04280
N2653       N  0.57769159  0.48568490  0.10539961     0.66780
H2654       H  0.59539272  0.45879800  0.02780112     0.15680
H2655       H  0.54103295  0.05555654  0.99447749     0.15390
N2656       N  0.56275513  0.03167282  0.91989919     0.74490
O2657       O  0.56782276  0.45817962  0.11436730    -0.38960
O2658       O  0.59178416  0.49992464  0.13598521    -0.38900
O2659       O  0.56011042  0.01286065  0.88521040    -0.39610
O2660       O  0.56307143  0.06192127  0.91325794    -0.39680
C2661       C  0.77926026  0.35487422  0.06125944    -0.11960
C2662       C  0.78558296  0.32147139  0.05407721     0.05050
C2663       C  0.78021698  0.30990134  0.00723544    -0.07240
C2664       C  0.77183016  0.33113097  0.97153677    -0.07990
C2665       C  0.76480600  0.36326315  0.98031820    -0.02540
C2666       C  0.76798534  0.37498992  0.02643823     0.04280
N2667       N  0.75834237  0.40671724  0.03933460     0.66780
H2668       H  0.78133236  0.36549471  0.09563474     0.15680
H2669       H  0.76699973  0.32098657  0.93745152     0.15390
N2670       N  0.77676736  0.27665127  0.99564820     0.74490
O2671       O  0.75356038  0.41388578  0.08149643    -0.38960
O2672       O  0.75588443  0.42837609  0.00891709    -0.38900
O2673       O  0.75351363  0.26468546  0.00282928    -0.39610
O2674       O  0.79086724  0.26505189  0.96243047    -0.39680
C2675       C  0.78170818  0.01808531  0.73577733    -0.11960
C2676       C  0.76441230  0.49319710  0.72319597     0.05050
C2677       C  0.76437065  0.48350147  0.67575738    -0.07240
C2678       C  0.77779647  0.50220394  0.64121288    -0.07990
C2679       C  0.79306256  0.03022871  0.65225036    -0.02540
C2680       C  0.79816006  0.03405282  0.70259496     0.04280
N2681       N  0.82156571  0.04981116  0.72252612     0.66780
H2682       H  0.78379407  0.02370213  0.77267627     0.15680
H2683       H  0.77730199  0.49363562  0.60535082     0.15390
N2684       N  0.75515681  0.45188167  0.66333964     0.74490
O2685       O  0.81891151  0.06561617  0.76032416    -0.38960
O2686       O  0.84507475  0.04014624  0.71146747    -0.38900
O2687       O  0.73171350  0.44240560  0.67518824    -0.39610
O2688       O  0.77261182  0.43144835  0.64933057    -0.39680
C2689       C  0.85075757  0.08112653  0.62643291    -0.11960
C2690       C  0.82226025  0.07950826  0.63428425     0.05050
C2691       C  0.81096530  0.10235489  0.66762849    -0.07240
C2692       C  0.82870563  0.11985919  0.69708846    -0.07990
C2693       C  0.85696858  0.11585442  0.69450307    -0.02540
C2694       C  0.86808913  0.09857649  0.65619831     0.04280
N2695       N  0.89696665  0.09650512  0.64871213     0.66780
H2696       H  0.86030298  0.06787543  0.59813865     0.15680
H2697       H  0.82021754  0.13479870  0.72492532     0.15390
N2698       N  0.78229184  0.10364848  0.67887700     0.74490
O2699       O  0.90797179  0.06921961  0.64131901    -0.38960
O2700       O  0.91034062  0.12188923  0.64006396    -0.38900
O2701       O  0.77481474  0.10464321  0.72120632    -0.39610
O2702       O  0.76507990  0.11080108  0.64806720    -0.39680
C2703       C  0.98335261  0.09866367  0.05647016    -0.11960
C2704       C  0.99444123  0.11554706  0.01897079     0.05050
C2705       C  0.52282036  0.11864661  0.01517565    -0.07240
C2706       C  0.53960291  0.10111517  0.04534741    -0.07990
C2707       C  0.52859846  0.07749878  0.07571555    -0.02540
C2708       C  0.00001187  0.08047712  0.08615526     0.04280
N2709       N  0.98717812  0.06611789  0.12608763     0.66780
H2710       H  0.96146857  0.09866122  0.06175834     0.15680
H2711       H  0.56145024  0.10244344  0.04017154     0.15390
N2712       N  0.53476468  0.13760755  0.97866887     0.74490
O2713       O  0.99357754  0.07567499  0.16656057    -0.38960
O2714       O  0.96526832  0.05053983  0.12087442    -0.38900
O2715       O  0.52497300  0.16502541  0.96860058    -0.39610
O2716       O  0.55369152  0.12581755  0.95382244    -0.39680
C2717       C  0.83126623  0.23165870  0.02299436    -0.11960
C2718       C  0.85844965  0.24107355  0.02414067     0.05050
C2719       C  0.86732775  0.26096868  0.06113400    -0.07240
C2720       C  0.84748808  0.27575744  0.08984400    -0.07990
C2721       C  0.81917954  0.27405080  0.07935970    -0.02540
C2722       C  0.81198983  0.24526244  0.05366220     0.04280
N2723       N  0.78730089  0.22700995  0.06107400     0.66780
H2724       H  0.82524024  0.21254671  0.99897558     0.15680
H2725       H  0.85475889  0.28913646  0.11969908     0.15390
N2726       N  0.89576101  0.26729929  0.06946223     0.74490
O2727       O  0.77741736  0.21104160  0.02732876    -0.38960
O2728       O  0.78229536  0.21662217  0.10147030    -0.38900
O2729       O  0.91245687  0.26924855  0.03590631    -0.39610
O2730       O  0.90387820  0.27382346  0.11028554    -0.39680
C2731       C  0.51387507  0.26095256  0.71657833    -0.11960
C2732       C  0.99306893  0.24269386  0.69642873     0.05050
C2733       C  0.99227229  0.24109723  0.64684816    -0.07240
C2734       C  0.01262521  0.25737372  0.62020716    -0.07990
C2735       C  0.53243341  0.27822663  0.64079890    -0.02540
C2736       C  0.53139504  0.28035747  0.69118356     0.04280
N2737       N  0.54461418  0.30442680  0.71930205     0.66780
H2738       H  0.51544090  0.26309736  0.75424225     0.15680
H2739       H  0.01168195  0.25565017  0.58245936     0.15390
N2740       N  0.97047581  0.22504814  0.62271484     0.74490
O2741       O  0.56048673  0.29486868  0.75106241    -0.38960
O2742       O  0.53258675  0.33122606  0.72542786    -0.38900
O2743       O  0.94609803  0.23127113  0.63380456    -0.39610
O2744       O  0.97515547  0.21052882  0.58449805    -0.39680
C2745       C  0.83759720  0.34387591  0.10937927    -0.11960
C2746       C  0.81466338  0.32737935  0.12858941     0.05050
C2747       C  0.80821698  0.33602001  0.17595677    -0.07240
C2748       C  0.82740050  0.35237326  0.20378786    -0.07990
C2749       C  0.85271542  0.36320171  0.18656217    -0.02540
C2750       C  0.85705177  0.36028925  0.13762750     0.04280
N2751       N  0.88138870  0.37229127  0.11600879     0.66780
H2752       H  0.84183371  0.34121548  0.07232674     0.15680
H2753       H  0.82187346  0.35726023  0.23986444     0.15390
N2754       N  0.78164011  0.33149595  0.19590398     0.74490
O2755       O  0.89419648  0.35474206  0.08695069    -0.38960
O2756       O  0.88748136  0.40191964  0.11971975    -0.38900
O2757       O  0.77926768  0.32112536  0.23718662    -0.39610
O2758       O  0.76133124  0.34462383  0.17687355    -0.39680
C2759       C  0.99764703  0.48526752  0.14344661    -0.11960
C2760       C  0.00081281  0.48926339  0.19193726     0.05050
C2761       C  0.02174823  0.01034575  0.20758501    -0.07240
C2762       C  0.03833147  0.02632454  0.17565437    -0.07990
C2763       C  0.53291075  0.02661002  0.12728525    -0.02540
C2764       C  0.51291639  0.50370350  0.11102289     0.04280
N2765       N  0.50785408  0.49815127  0.06215494     0.66780
H2766       H  0.48242953  0.46856312  0.13038548     0.15680
H2767       H  0.05483786  0.03989806  0.19067135     0.15390
N2768       N  0.02537074  0.01846361  0.25592863     0.74490
O2769       O  0.50786112  0.46947745  0.04640235    -0.38960
O2770       O  0.49802715  0.52035679  0.03720133    -0.38900
O2771       O  0.04796886  0.01286407  0.27516614    -0.39610
O2772       O  0.00924083  0.03859853  0.27479183    -0.39680
C2773       C  0.99052040  0.35600037  0.55865657    -0.11960
C2774       C  0.99078040  0.34829097  0.51067919     0.05050
C2775       C  0.00923972  0.32355538  0.49603967    -0.07240
C2776       C  0.02798924  0.31022681  0.52726222    -0.07990
C2777       C  0.52947318  0.31884020  0.57516325    -0.02540
C2778       C  0.50817346  0.34046621  0.59100793     0.04280
N2779       N  0.50218157  0.34520896  0.63959315     0.66780
H2780       H  0.97563248  0.37330165  0.57173731     0.15680
H2781       H  0.04047627  0.29103690  0.51286182     0.15390
N2782       N  0.00868844  0.30981237  0.44988342     0.74490
O2783       O  0.50233904  0.37372223  0.65596094    -0.38960
O2784       O  0.48747796  0.32445073  0.65975232    -0.38900
O2785       O  0.03075957  0.30578628  0.42770908    -0.39610
O2786       O  0.98775974  0.29470160  0.43656925    -0.39680
C2787       C  0.86160551  0.49383118  0.55348192    -0.11960
C2788       C  0.85838657  0.49879057  0.50522774     0.05050
C2789       C  0.83613392  0.01839758  0.49175228    -0.07240
C2790       C  0.81901442  0.03308365  0.52531653    -0.07990
C2791       C  0.82267548  0.03031608  0.57457174    -0.02540
C2792       C  0.84430103  0.00852610  0.58769724     0.04280
N2793       N  0.84982544  0.00074322  0.63531398     0.66780
H2794       H  0.87786999  0.47808864  0.56521170     0.15680
H2795       H  0.80271199  0.04707051  0.51052939     0.15390
N2796       N  0.82973413  0.52332726  0.44359145     0.74490
O2797       O  0.83475014  0.98042486  0.65560272    -0.38960
O2798       O  0.87382270  0.00443346  0.65013474    -0.38900
O2799       O  0.81619311  0.50203316  0.42204605    -0.39610
O2800       O  0.83193231  0.05132273  0.42635919    -0.39680
C2801       C  0.89455649  0.43527307  0.92055678    -0.11960
C2802       C  0.91856709  0.44675229  0.89924119     0.05050
C2803       C  0.93300025  0.47118170  0.92567705    -0.07240
C2804       C  0.92056593  0.98734326  0.96418171    -0.07990
C2805       C  0.89619705  0.47605673  0.98319348    -0.02540
C2806       C  0.88502091  0.44725201  0.96352950     0.04280
N2807       N  0.86469566  0.42891265  0.98824290     0.66780
H2808       H  0.88406132  0.41458689  0.90597629     0.15680
H2809       H  0.93056657  0.00798609  0.98021230     0.15390
N2810       N  0.96105172  0.97806269  0.91769049     0.74490
O2811       O  0.84765852  0.41183065  0.96619010    -0.38960
O2812       O  0.86658549  0.42566035  0.03195174    -0.38900
O2813       O  0.96745441  0.00560665  0.90219354    -0.39610
O2814       O  0.97826143  0.96307629  0.94215422    -0.39680
C2815       C  0.94074807  0.48180776  0.81683696    -0.11960
C2816       C  0.94388313  0.44769069  0.81755012     0.05050
C2817       C  0.95762091  0.43341558  0.77833010    -0.07240
C2818       C  0.97402179  0.45261681  0.74998118    -0.07990
C2819       C  0.97423764  0.98636241  0.75470550    -0.02540
C2820       C  0.95456967  0.00120931  0.78403393     0.04280
N2821       N  0.94577237  0.03424535  0.77721162     0.66780
H2822       H  0.92651531  0.99358128  0.84037793     0.15680
H2823       H  0.48627434  0.44093058  0.72302462     0.15390
N2824       N  0.95502353  0.39988468  0.76570175     0.74490
O2825       O  0.92184365  0.04249413  0.78851662    -0.38960
O2826       O  0.96010431  0.05408514  0.75457996    -0.38900
O2827       O  0.94159837  0.39270794  0.72955585    -0.39610
O2828       O  0.47143415  0.37920766  0.78173084    -0.39680
C2829       C  0.91082454  0.37319133  0.81909059    -0.11960
C2830       C  0.90784865  0.40685386  0.82904386     0.05050
C2831       C  0.88505693  0.42250685  0.80772408    -0.07240
C2832       C  0.86703735  0.40504502  0.77859386    -0.07990
C2833       C  0.87098703  0.37211108  0.76781552    -0.02540
C2834       C  0.89382242  0.35622821  0.78749417     0.04280
N2835       N  0.90197332  0.32418107  0.77236456     0.66780
H2836       H  0.92818556  0.36008989  0.83220251     0.15680
H2837       H  0.85023029  0.41788009  0.76255406     0.15390
N2838       N  0.88039829  0.45662786  0.81296470     0.74490
O2839       O  0.92679356  0.31604943  0.77271861    -0.38960
O2840       O  0.88468850  0.30381095  0.75843015    -0.38900
O2841       O  0.88394038  0.47465500  0.77796035    -0.39610
O2842       O  0.86516997  0.46660451  0.84571634    -0.39680
C2843       C  0.94069229  0.38165023  0.91334711    -0.11960
C2844       C  0.95198906  0.40387141  0.88093275     0.05050
C2845       C  0.98139875  0.40478656  0.87787269    -0.07240
C2846       C  0.49695470  0.38502591  0.90734112    -0.07990
C2847       C  0.98489353  0.36511596  0.94062065    -0.02540
C2848       C  0.95646256  0.36257565  0.94292239     0.04280
N2849       N  0.94323121  0.34080508  0.97501524     0.66780
H2850       H  0.91889942  0.37877638  0.91566644     0.15680
H2851       H  0.51899329  0.38678366  0.90615123     0.15390
N2852       N  0.99674295  0.42511984  0.84677750     0.74490
O2853       O  0.91953672  0.34698922  0.99002554    -0.38960
O2854       O  0.95393698  0.31381797  0.98476862    -0.38900
O2855       O  0.49817029  0.45521838  0.85432892    -0.39610
O2856       O  0.01481826  0.41224117  0.82106650    -0.39680
C2857       C  0.93076153  0.92662872  0.85634593    -0.02180
O2858       O  0.99099915  0.98068575  0.41634883    -0.74980
O2859       O  0.96135851  0.96228053  0.47222693    -0.53890
C2860       C  0.98251793  0.97856222  0.45799353     0.78750
O2861       O  0.88488046  0.99190227  0.26821875    -0.59580
O2862       O  0.90807782  0.96318980  0.21177468    -0.52610
C2863       C  0.89154188  0.98525326  0.22574246     0.70760
O2864       O  0.87463772  0.99058238  0.42620731    -0.74140
O2865       O  0.89526614  0.96175830  0.48384973    -0.54700
C2866       C  0.87747028  0.98280116  0.46968967     0.76770
O2867       O  0.98796937  0.97659601  0.26929924    -0.59280
O2868       O  0.96335618  0.95307334  0.21163235    -0.52400
C2869       C  0.98284147  0.97162870  0.22602301     0.73360
Zr2870     Zr  0.97160141  0.96377647  0.34648705     2.54710
O2871       O  0.97231742  0.52286767  0.34742475    -0.79850
O2872       O  0.52040787  0.95405557  0.33996532    -0.93270
Zr2873     Zr  0.89314534  0.97659045  0.34807229     2.64680
O2874       O  0.90119560  0.53463962  0.35321701    -0.98220
O2875       O  0.84443441  0.98475860  0.33845466    -0.80280
O2876       O  0.93241427  0.97199378  0.39448870    -0.83640
O2877       O  0.93284153  0.97051657  0.30109541    -2.18350
O2878       O  0.98963992  0.86712258  0.28718846    -0.67030
O2879       O  0.96336941  0.88424862  0.22652127    -0.51590
C2880       C  0.98459229  0.87049130  0.24398362     0.71740
O2881       O  0.86383235  0.86883400  0.41698422    -0.59940
O2882       O  0.88960081  0.89226260  0.47474563    -0.51910
C2883       C  0.86936242  0.87505227  0.45961845     0.73540
O2884       O  0.86661861  0.87159865  0.26504509    -0.71330
O2885       O  0.89484679  0.89176899  0.20953598    -0.50010
C2886       C  0.87294978  0.87652556  0.22198594     0.74930
O2887       O  0.97677543  0.85841854  0.43269863    -0.66660
O2888       O  0.95524827  0.88783708  0.48898091    -0.53860
C2889       C  0.97281364  0.86594856  0.47580272     0.73310
Zr2890     Zr  0.96100535  0.86920119  0.35382368     2.77540
O2891       O  0.94358572  0.81432349  0.34353367    -0.97410
O2892       O  0.50398479  0.83983376  0.35563909    -0.78230
Zr2893     Zr  0.88347355  0.88179593  0.34358636     2.70070
O2894       O  0.88136512  0.82280251  0.33994381    -0.79480
O2895       O  0.83422045  0.88889176  0.34309962    -0.98560
Zr2896     Zr  0.92644178  0.92468265  0.44103267     2.21500
Zr2897     Zr  0.92948566  0.92158567  0.25614164     2.11130
O2898       O  0.92388601  0.87311092  0.30070492    -2.47250
O2899       O  0.92061762  0.87562727  0.39667201    -0.79270
O2900       O  0.96744731  0.91525234  0.30575904    -0.71470
O2901       O  0.88751179  0.92898291  0.39123169    -2.32420
O2902       O  0.96701472  0.91788815  0.39602001    -2.28630
O2903       O  0.88852829  0.92952067  0.30001247    -0.73230
H2904       H  0.93555435  0.98934738  0.28172107     0.78770
H2905       H  0.87094600  0.93106991  0.40931044     0.79860
H2906       H  0.92260877  0.85422206  0.28064698     0.82080
H2907       H  0.98297139  0.91656648  0.41552284     0.79690
H2908       H  0.83637162  0.96316157  0.34427113     0.42720
H2909       H  0.83055527  0.90420919  0.31734048     0.41690
H2910       H  0.88848339  0.81549215  0.37044392     0.41370
H2911       H  0.95554010  0.80445092  0.31931676     0.39310
H2912       H  0.51756109  0.85617806  0.36569102     0.42440
H2913       H  0.52468639  0.93902572  0.36578831     0.37220
H2914       H  0.95961869  0.52932211  0.37285271     0.43340
H2915       H  0.91177447  0.53977735  0.32468008     0.39750
H2916       H  0.94841104  0.80292046  0.37269607     0.44670
H2917       H  0.52893187  0.97487772  0.34908948     0.43400
H2918       H  0.88306168  0.54446487  0.34781092     0.43530
H2919       H  0.82697914  0.86784452  0.33189140     0.43890
O2920       O  0.98185667  0.73957516  0.92657680    -0.74980
O2921       O  0.95965339  0.71208430  0.98443760    -0.53890
C2922       C  0.97812693  0.73127464  0.96872241     0.78750
O2923       O  0.86564284  0.73639631  0.79215989    -0.59580
O2924       O  0.89149210  0.71293283  0.73428865    -0.52610
C2925       C  0.87172386  0.73064283  0.74962374     0.70760
O2926       O  0.86922853  0.73553343  0.94502566    -0.74140
O2927       O  0.89610016  0.70981083  0.99787531    -0.54700
C2928       C  0.87616668  0.72837292  0.98695552     0.76770
O2929       O  0.97772629  0.73466679  0.77381159    -0.59280
O2930       O  0.95466461  0.70785817  0.71791175    -0.52400
C2931       C  0.97361578  0.72730816  0.73069396     0.73360
Zr2932     Zr  0.96361003  0.72599173  0.85389381     2.54710
O2933       O  0.95993683  0.78491653  0.85187754    -0.79850
O2934       O  0.51296685  0.73088956  0.84705771    -0.93270
Zr2935     Zr  0.88459689  0.72491050  0.86555610     2.64680
O2936       O  0.88868317  0.78364500  0.87125936    -0.98220
O2937       O  0.83523215  0.73049449  0.86821734    -0.80280
O2938       O  0.92573389  0.72715271  0.90640675    -0.83640
O2939       O  0.92269756  0.72706148  0.81314776    -2.18350
O2940       O  0.98179518  0.61796597  0.78621359    -0.67030
O2941       O  0.95734160  0.64363033  0.72960808    -0.51590
C2942       C  0.97665644  0.62517622  0.74399382     0.71740
O2943       O  0.87736980  0.60968003  0.93558309    -0.59940
O2944       O  0.90212675  0.63629905  0.99145071    -0.51910
C2945       C  0.88530588  0.61449115  0.97785570     0.73540
O2946       O  0.86732880  0.62098644  0.77597422    -0.71330
O2947       O  0.89454003  0.64566516  0.72234149    -0.50010
C2948       C  0.87408238  0.62819802  0.73341754     0.74930
O2949       O  0.98226394  0.62045862  0.93989654    -0.66660
O2950       O  0.95659103  0.64632314  0.99522412    -0.53860
C2951       C  0.97645359  0.62811720  0.98251606     0.73310
Zr2952     Zr  0.96471246  0.62983552  0.86127588     2.77540
O2953       O  0.96272984  0.57147781  0.87094544    -0.97410
O2954       O  0.51418651  0.62576684  0.85923706    -0.78230
Zr2955     Zr  0.88441751  0.62928937  0.85689549     2.70070
O2956       O  0.88120269  0.57061467  0.84850089    -0.79480
O2957       O  0.83511544  0.63276505  0.86408453    -0.98560
Zr2958     Zr  0.92588089  0.67763156  0.94871106     2.21500
Zr2959     Zr  0.92447736  0.67750966  0.76952806     2.11130
O2960       O  0.92515616  0.62794450  0.81276976    -2.47250
O2961       O  0.92427417  0.62869134  0.90422619    -0.79270
O2962       O  0.96515822  0.67678361  0.81329689    -0.71470
O2963       O  0.88404490  0.67585877  0.90679883    -2.32420
O2964       O  0.96572920  0.67893658  0.90147002    -2.28630
O2965       O  0.88423245  0.67822028  0.81614229    -0.73230
H2966       H  0.92198366  0.74585917  0.79317870     0.78770
H2967       H  0.86854547  0.67476814  0.92766074     0.79860
H2968       H  0.92549331  0.60924525  0.79223702     0.82080
H2969       H  0.98234718  0.67906834  0.91923258     0.79690
H2970       H  0.82868083  0.70953798  0.88065478     0.42720
H2971       H  0.82974435  0.64987596  0.84177694     0.41690
H2972       H  0.89251385  0.56179769  0.87404999     0.41370
H2973       H  0.94384169  0.56556877  0.86276922     0.39310
H2974       H  0.52054617  0.64848163  0.86191192     0.42440
H2975       H  0.52049304  0.71602089  0.87082888     0.37220
H2976       H  0.95545042  0.79144810  0.88440297     0.43340
H2977       H  0.90533265  0.78889851  0.85332743     0.39750
H2978       H  0.97426580  0.56257046  0.84545119     0.44670
H2979       H  0.51726149  0.75295035  0.85875930     0.43400
H2980       H  0.87352283  0.79217601  0.85219309     0.43530
H2981       H  0.82837949  0.61236163  0.84984195     0.43890
O2982       O  0.70537345  0.98013346  0.96963116    -0.74980
O2983       O  0.74244516  0.97026456  0.92304791    -0.53890
C2984       C  0.73055217  0.98141316  0.96088063     0.78750
O2985       O  0.63157341  0.86722381  0.94153804    -0.59580
O2986       O  0.59626812  0.88846024  0.89957425    -0.52610
C2987       C  0.60640461  0.87113777  0.93262336     0.70760
O2988       O  0.72053432  0.87118820  0.95308336    -0.74140
O2989       O  0.75418008  0.89925966  0.91546794    -0.54700
C2990       C  0.74557473  0.87906892  0.94697381     0.76770
O2991       O  0.62368686  0.98877044  0.94480586    -0.59280
O2992       O  0.59264498  0.95679097  0.90754337    -0.52400
C2993       C  0.59964187  0.97779414  0.93926729     0.73360
Zr2994     Zr  0.66911252  0.97858096  0.91757525     2.54710
O2995       O  0.65989741  0.99381701  0.99863083    -0.79850
O2996       O  0.67712477  0.53632213  0.90766980    -0.93270
Zr2997     Zr  0.67602456  0.88405466  0.92172717     2.64680
O2998       O  0.67470332  0.89388342  0.00584146    -0.98220
O2999       O  0.67796029  0.82561217  0.93101538    -0.80280
O3000       O  0.69890846  0.93338040  0.92190811    -0.83640
O3001       O  0.64591826  0.92892133  0.91835566    -2.18350
O3002       O  0.63073512  0.98947792  0.75916329    -0.67030
O3003       O  0.59591002  0.96361605  0.79707291    -0.51590
C3004       C  0.60561973  0.98297472  0.76607990     0.71740
O3005       O  0.72106061  0.87988537  0.75425835    -0.59940
O3006       O  0.75480981  0.89620760  0.80355308    -0.51910
C3007       C  0.74584257  0.88193016  0.76613279     0.73540
O3008       O  0.63665584  0.86820879  0.74895171    -0.71330
O3009       O  0.59986009  0.89223126  0.78349075    -0.50010
C3010       C  0.61116111  0.87396976  0.75143161     0.74930
O3011       O  0.71982682  0.98335471  0.74814336    -0.66660
O3012       O  0.75356969  0.96650773  0.79722436    -0.53860
C3013       C  0.74500054  0.97968275  0.75865593     0.73310
Zr3014     Zr  0.67573150  0.97706240  0.78500254     2.77540
O3015       O  0.67539140  0.98095954  0.70004381    -0.97410
O3016       O  0.68039231  0.53570905  0.79172122    -0.78230
Zr3017     Zr  0.67765586  0.88193462  0.78844978     2.70070
O3018       O  0.68001829  0.86583120  0.70649366    -0.79480
O3019       O  0.68142249  0.82472941  0.80738238    -0.98560
Zr3020     Zr  0.72960460  0.93321466  0.85752206     2.21500
Zr3021     Zr  0.61974957  0.92631622  0.84801588     2.11130
O3022       O  0.65016036  0.92841559  0.78256142    -2.47250
O3023       O  0.70294194  0.93037559  0.78845956    -0.79270
O3024       O  0.64396093  0.97711060  0.84809632    -0.71470
O3025       O  0.70495929  0.88296339  0.85612063    -2.32420
O3026       O  0.70102816  0.98091912  0.85468009    -2.28630
O3027       O  0.64867633  0.87937827  0.85341709    -0.73230
H3028       H  0.63443252  0.92832466  0.94580583     0.78770
H3029       H  0.71704247  0.86443169  0.85691884     0.79860
H3030       H  0.64043776  0.92818685  0.75331841     0.82080
H3031       H  0.71179745  0.00049284  0.85562530     0.79690
H3032       H  0.67473778  0.82199848  0.96478857     0.42720
H3033       H  0.66278660  0.81620527  0.80270326     0.41690
H3034       H  0.67967407  0.88651736  0.68904381     0.41370
H3035       H  0.66210875  0.96442899  0.68960417     0.39310
H3036       H  0.70018007  0.53987292  0.78886586     0.42440
H3037       H  0.69528925  0.53989472  0.92152726     0.37220
H3038       H  0.65700585  0.97301032  0.01509978     0.43340
H3039       H  0.65522053  0.89703090  0.01367789     0.39750
H3040       H  0.66667408  0.00209179  0.69326259     0.44670
H3041       H  0.66442819  0.54686966  0.93012532     0.43400
H3042       H  0.67952195  0.87276329  0.01990306     0.43530
H3043       H  0.69220588  0.81525690  0.78129253     0.43890
C3044       C  0.67712311  0.67225415  0.85834066    -0.02180
C3045       C  0.67761573  0.92940661  0.35013501    -0.02180
C3046       C  0.92920741  0.67829506  0.34841581    -0.02180
O3047       O  0.99035223  0.61671920  0.66767566    -0.74980
O3048       O  0.51382820  0.59275898  0.72711994    -0.53890
C3049       C  0.49476508  0.61074561  0.71063079     0.78750
O3050       O  0.98978222  0.49343125  0.53307193    -0.59580
O3051       O  0.51905446  0.51365702  0.47806684    -0.52610
C3052       C  0.99831532  0.49641528  0.49162929     0.70760
O3053       O  0.98682641  0.49759478  0.67858421    -0.74140
O3054       O  0.51045850  0.52299599  0.73651609    -0.54700
C3055       C  0.49146476  0.50405164  0.72149556     0.76770
O3056       O  0.00141256  0.61883405  0.51686399    -0.59280
O3057       O  0.52440691  0.58740915  0.46384887    -0.52400
C3058       C  0.50670301  0.60961421  0.47465095     0.73360
Zr3059     Zr  0.51469833  0.60630925  0.59721822     2.54710
O3060       O  0.96784168  0.62409144  0.58646488    -0.79850
O3061       O  0.52789033  0.66294904  0.60412932    -0.93270
Zr3062     Zr  0.50600773  0.51131355  0.60448597     2.64680
O3063       O  0.95691945  0.52042113  0.60459925    -0.98220
O3064       O  0.50418150  0.95221479  0.60305949    -0.80280
O3065       O  0.50780832  0.56025396  0.64578039    -0.83640
O3066       O  0.51063553  0.55728686  0.55548041    -2.18350
O3067       O  0.61185800  0.61023171  0.53900962    -0.67030
O3068       O  0.58721177  0.58633134  0.48037756    -0.51590
C3069       C  0.60658681  0.60447760  0.49614697     0.71740
O3070       O  0.59585424  0.49139628  0.68901179    -0.59940
O3071       O  0.56879785  0.51587200  0.74423596    -0.51910
C3072       C  0.58824689  0.49709775  0.73143725     0.73540
O3073       O  0.60665172  0.48778559  0.53074811    -0.71330
O3074       O  0.58514943  0.51620157  0.47323218    -0.50010
C3075       C  0.60327504  0.49575264  0.48749255     0.74930
O3076       O  0.60922227  0.60374898  0.69140036    -0.66660
O3077       O  0.57824550  0.58525880  0.74409596    -0.53860
C3078       C  0.60065206  0.59992926  0.73350499     0.73310
Zr3079     Zr  0.59328642  0.59463718  0.61226961     2.77540
O3080       O  0.64238655  0.58557548  0.61415077    -0.97410
O3081       O  0.59816328  0.65272171  0.62561635    -0.78230
Zr3082     Zr  0.58496502  0.49981036  0.60725831     2.70070
O3083       O  0.63251911  0.48395947  0.61420399    -0.79480
O3084       O  0.57295918  0.94267263  0.60175254    -0.98560
Zr3085     Zr  0.54578102  0.55421059  0.69591721     2.21500
Zr3086     Zr  0.55227910  0.55161417  0.51364518     2.11130
O3087       O  0.59079364  0.54767128  0.56431188    -2.47250
O3088       O  0.58786311  0.54696035  0.65526593    -0.79270
O3089       O  0.55657195  0.60078155  0.55810541    -0.71470
O3090       O  0.54421763  0.50474099  0.65213907    -2.32420
O3091       O  0.55144634  0.60247463  0.65129547    -2.28630
O3092       O  0.54632155  0.50394959  0.55909443    -0.73230
H3093       H  0.99523547  0.55836322  0.53466397     0.78770
H3094       H  0.54188833  0.98615151  0.67214978     0.79860
H3095       H  0.60756055  0.54648543  0.54665673     0.82080
H3096       H  0.55203642  0.62130744  0.67154881     0.79690
H3097       H  0.50517955  0.94552308  0.63616505     0.42720
H3098       H  0.56413131  0.94027269  0.57086838     0.41690
H3099       H  0.64277254  0.50426638  0.60881902     0.41370
H3100       H  0.64664920  0.57211589  0.58624469     0.39310
H3101       H  0.57970373  0.66083415  0.63339018     0.42440
H3102       H  0.51828013  0.67101706  0.63243469     0.37220
H3103       H  0.95758514  0.60380456  0.58069744     0.43340
H3104       H  0.95334798  0.53391435  0.57676191     0.39750
H3105       H  0.65051220  0.60700983  0.60736386     0.44670
H3106       H  0.01852528  0.67367017  0.57783045     0.43400
H3107       H  0.94886536  0.49903648  0.59697623     0.43530
H3108       H  0.59062520  0.93125572  0.59814112     0.43890
O3109       O  0.99813176  0.86070384  0.01873496    -0.74980
O3110       O  0.51978653  0.82949325  0.96405902    -0.53890
C3111       C  0.50210799  0.85076657  0.97661501     0.78750
O3112       O  0.61439188  0.86336710  0.16993904    -0.59580
O3113       O  0.59005651  0.84052423  0.22946290    -0.52610
C3114       C  0.60932391  0.85845638  0.21367375     0.70760
O3115       O  0.59810911  0.86272153  0.00991463    -0.74140
O3116       O  0.57237301  0.83498253  0.95686130    -0.54700
C3117       C  0.58998214  0.85631132  0.96807550     0.76770
O3118       O  0.99845150  0.86318093  0.16966650    -0.59280
O3119       O  0.52455043  0.84122361  0.22735242    -0.52400
C3120       C  0.50414231  0.85765843  0.21199180     0.73360
Zr3121     Zr  0.51632649  0.85087479  0.09633843     2.54710
O3122       O  0.52426637  0.90903811  0.09445553    -0.79850
O3123       O  0.96719636  0.85972890  0.09981119    -0.93270
Zr3124     Zr  0.59570061  0.84942121  0.09259113     2.64680
O3125       O  0.60359386  0.90769411  0.09080717    -0.98220
O3126       O  0.64440656  0.84217296  0.08000273    -0.80280
O3127       O  0.55478924  0.84922997  0.04880034    -0.83640
O3128       O  0.55686503  0.85338355  0.14152381    -2.18350
O3129       O  0.00286127  0.74752100  0.19190815    -0.67030
O3130       O  0.52673247  0.77734212  0.24414097    -0.51590
C3131       C  0.50745437  0.75726801  0.23390972     0.71740
O3132       O  0.60865107  0.74075701  0.01536565    -0.59940
O3133       O  0.58202435  0.76626794  0.96177979    -0.51910
C3134       C  0.60175359  0.74750505  0.97321539     0.73540
O3135       O  0.61693428  0.74852432  0.16751643    -0.71330
O3136       O  0.59089476  0.77099806  0.22591118    -0.50010
C3137       C  0.61096191  0.75386454  0.21023876     0.74930
O3138       O  0.99317682  0.73870761  0.04322132    -0.66660
O3139       O  0.51658261  0.76168778  0.98266505    -0.53860
C3140       C  0.49726646  0.74453092  0.00029227     0.73310
Zr3141     Zr  0.51616473  0.75447169  0.11106478     2.77540
O3142       O  0.52315006  0.69597623  0.11487247    -0.97410
O3143       O  0.96718406  0.74842008  0.12058649    -0.78230
Zr3144     Zr  0.59456724  0.75390497  0.09492663     2.70070
O3145       O  0.58708122  0.69582779  0.10339680    -0.79480
O3146       O  0.64289609  0.74223793  0.08335260    -0.98560
Zr3147     Zr  0.55127198  0.79825925  0.00982002     2.21500
Zr3148     Zr  0.55775665  0.80597720  0.18979924     2.11130
O3149       O  0.55781032  0.75484648  0.14998592    -2.47250
O3150       O  0.55260714  0.75037829  0.05592544    -0.79270
O3151       O  0.51660667  0.80543774  0.14738353    -0.71470
O3152       O  0.59414847  0.80072809  0.04858003    -2.32420
O3153       O  0.51296440  0.80014009  0.06036821    -2.28630
O3154       O  0.59656210  0.80285249  0.13923128    -0.73230
H3155       H  0.55727234  0.87302159  0.16011127     0.78770
H3156       H  0.60920644  0.80081501  0.02673655     0.79860
H3157       H  0.55887383  0.73688449  0.17144823     0.82080
H3158       H  0.99588809  0.80001478  0.04383768     0.79690
H3159       H  0.64944081  0.82376994  0.10032340     0.42720
H3160       H  0.65271730  0.75923538  0.10111578     0.41690
H3161       H  0.57845629  0.68895050  0.07373956     0.41370
H3162       H  0.52524747  0.69126949  0.14857678     0.39310
H3163       H  0.96038244  0.77096102  0.12394783     0.42440
H3164       H  0.95924815  0.84266794  0.07954939     0.37220
H3165       H  0.53552010  0.91230342  0.06605595     0.43340
H3166       H  0.61701101  0.91214430  0.11573623     0.39750
H3167       H  0.00527650  0.68652479  0.10657338     0.44670
H3168       H  0.96388958  0.88031205  0.08307115     0.43400
H3169       H  0.61397515  0.91124098  0.06156613     0.43530
H3170       H  0.64639797  0.72187008  0.10052104     0.43890
O3171       O  0.85369905  0.99072471  0.00890229    -0.74980
O3172       O  0.88779380  0.51571916  0.04812159    -0.53890
C3173       C  0.87879622  0.49579257  0.01619841     0.78750
O3174       O  0.76312151  0.60315652  0.99381403    -0.59580
O3175       O  0.72837111  0.58006784  0.03567347    -0.52610
C3176       C  0.73781136  0.59649738  0.00043319     0.70760
O3177       O  0.85064117  0.57999650  0.00109949    -0.74140
O3178       O  0.88378840  0.58893136  0.05231145    -0.54700
C3179       C  0.87286933  0.59386079  0.01247295     0.76770
O3180       O  0.77198911  0.99165157  0.99144798    -0.59280
O3181       O  0.73526592  0.51039091  0.03332269    -0.52400
C3182       C  0.74672335  0.49553833  0.99779543     0.73360
Zr3183     Zr  0.80969064  0.50151992  0.03796476     2.54710
O3184       O  0.81509059  0.48525404  0.95637352    -0.79850
O3185       O  0.80698297  0.94454111  0.05905181    -0.93270
Zr3186     Zr  0.80708699  0.59687062  0.03263149     2.64680
O3187       O  0.81195817  0.62184069  0.95608943    -0.98220
O3188       O  0.81438395  0.65411859  0.04946115    -0.80280
O3189       O  0.83474330  0.54962372  0.03547491    -0.83640
O3190       O  0.78207163  0.54841793  0.03263406    -2.18350
O3191       O  0.76071639  0.98979449  0.20015086    -0.67030
O3192       O  0.72662679  0.51361935  0.15833028    -0.51590
C3193       C  0.73545545  0.49555621  0.19258550     0.71740
O3194       O  0.84599801  0.61047242  0.20252077    -0.59940
O3195       O  0.88230169  0.58695003  0.16603784    -0.51910
C3196       C  0.87162032  0.60560324  0.19805647     0.73540
O3197       O  0.75873465  0.60786863  0.19407045    -0.71330
O3198       O  0.72522261  0.58287617  0.15180668    -0.50010
C3199       C  0.73390686  0.60093591  0.18587569     0.74930
O3200       O  0.84964222  0.99580535  0.19988073    -0.66660
O3201       O  0.88530531  0.51690951  0.15840856    -0.53860
C3202       C  0.87489108  0.50054264  0.19197617     0.73310
Zr3203     Zr  0.80514392  0.50355127  0.16995024     2.77540
O3204       O  0.80532529  0.50331437  0.25521716    -0.97410
O3205       O  0.80782464  0.94457122  0.16644850    -0.78230
Zr3206     Zr  0.80363330  0.59857453  0.16536208     2.70070
O3207       O  0.80076381  0.61043790  0.24873428    -0.79480
O3208       O  0.80282344  0.65626165  0.14831601    -0.98560
Zr3209     Zr  0.86168032  0.55148940  0.10469744     2.21500
Zr3210     Zr  0.75104904  0.54734452  0.09728498     2.11130
O3211       O  0.77804796  0.55023649  0.16656982    -2.47250
O3212       O  0.83110650  0.55181201  0.17017262    -0.79270
O3213       O  0.77866515  0.49928221  0.10125685    -0.71470
O3214       O  0.83382990  0.59994198  0.10129446    -2.32420
O3215       O  0.83586582  0.50217061  0.10593515    -2.28630
O3216       O  0.77661427  0.59734109  0.09714486    -0.73230
H3217       H  0.77300866  0.54793524  0.00295412     0.78770
H3218       H  0.84495380  0.61922811  0.10228357     0.79860
H3219       H  0.76682323  0.55014243  0.19432822     0.82080
H3220       H  0.84773040  0.98346895  0.10713475     0.79690
H3221       H  0.83302527  0.65843220  0.03772382     0.42720
H3222       H  0.78386177  0.66297186  0.15534983     0.41690
H3223       H  0.79997532  0.58885041  0.26368466     0.41370
H3224       H  0.79066953  0.51851972  0.26490691     0.39310
H3225       H  0.79029767  0.93766676  0.15270908     0.42440
H3226       H  0.82330234  0.93987094  0.07795698     0.37220
H3227       H  0.81763019  0.50584976  0.93922707     0.43340
H3228       H  0.80326055  0.60646315  0.93402449     0.39750
H3229       H  0.79861626  0.98156788  0.26415573     0.44670
H3230       H  0.81022711  0.93277947  0.02926961     0.43400
H3231       H  0.79983440  0.64108637  0.95661527     0.43530
H3232       H  0.81383120  0.66635548  0.17339190     0.43890
C3233       C  0.79832187  0.80149710  0.09695543    -0.02180
C3234       C  0.55073416  0.80006152  0.60762971    -0.02180
O3235       O  0.62259225  0.73680559  0.43642639    -0.74980
O3236       O  0.64750604  0.70825364  0.48923042    -0.53890
C3237       C  0.62843094  0.72899300  0.47867041     0.78750
O3238       O  0.61930519  0.61390939  0.26574078    -0.59580
O3239       O  0.64280709  0.64244400  0.21093854    -0.52610
C3240       C  0.62428656  0.62187443  0.22291802     0.70760
O3241       O  0.61774335  0.61516804  0.42000825    -0.74140
O3242       O  0.64453779  0.63685814  0.47758732    -0.54700
C3243       C  0.62420535  0.61991441  0.46257625     0.76770
O3244       O  0.62306529  0.74375873  0.28600947    -0.59280
O3245       O  0.64432559  0.71567392  0.22682658    -0.52400
C3246       C  0.62758615  0.73711807  0.24314094     0.73360
Zr3247     Zr  0.63818689  0.72237681  0.35770154     2.54710
O3248       O  0.58878329  0.71818705  0.35970617    -0.79850
O3249       O  0.63979712  0.78123447  0.36388211    -0.93270
Zr3250     Zr  0.63563889  0.62746227  0.34522476     2.64680
O3251       O  0.58617561  0.62868933  0.34459812    -0.98220
O3252       O  0.63564871  0.56864085  0.34527253    -0.80280
O3253       O  0.63760019  0.67296188  0.39724346    -0.83640
O3254       O  0.63508308  0.67697355  0.30560951    -2.18350
O3255       O  0.73272991  0.73383856  0.26806950    -0.67030
O3256       O  0.70649253  0.70949341  0.21256885    -0.51590
C3257       C  0.72628267  0.72818346  0.22528136     0.71740
O3258       O  0.73220082  0.60729597  0.42675251    -0.59940
O3259       O  0.70897644  0.63466483  0.48432877    -0.51910
C3260       C  0.72725792  0.61389648  0.47059627     0.73540
O3261       O  0.72285745  0.60828255  0.26403081    -0.71330
O3262       O  0.69864813  0.63630957  0.20912179    -0.50010
C3263       C  0.71602929  0.61480737  0.22142335     0.74930
O3264       O  0.73696112  0.73450739  0.41853465    -0.66660
O3265       O  0.71375643  0.70756214  0.47599700    -0.53860
C3266       C  0.73237271  0.72740032  0.46108288     0.73310
Zr3267     Zr  0.71789606  0.71860211  0.34614573     2.77540
O3268       O  0.76742144  0.71511880  0.34776751    -0.97410
O3269       O  0.71629792  0.77756610  0.34519564    -0.78230
Zr3270     Zr  0.71568286  0.62304457  0.34679249     2.70070
O3271       O  0.76505455  0.62526261  0.33929740    -0.79480
O3272       O  0.71726909  0.56407099  0.34862036    -0.98560
Zr3273     Zr  0.67846188  0.67202899  0.44176396     2.21500
Zr3274     Zr  0.67485358  0.67506634  0.25756910     2.11130
O3275       O  0.71656613  0.67097718  0.30036367    -2.47250
O3276       O  0.71777894  0.67085403  0.39240587    -0.79270
O3277       O  0.67645458  0.72254166  0.30573360    -0.71470
O3278       O  0.67560123  0.62413576  0.39285108    -2.32420
O3279       O  0.67972791  0.72115276  0.39826372    -2.28630
O3280       O  0.67551012  0.62525216  0.30015001    -0.73230
H3281       H  0.61871789  0.67836846  0.28714240     0.78770
H3282       H  0.67490542  0.60481712  0.41177671     0.79860
H3283       H  0.73205266  0.67023386  0.27943574     0.82080
H3284       H  0.68091099  0.73987935  0.41864471     0.79690
H3285       H  0.63253511  0.56237318  0.37822529     0.42720
H3286       H  0.71524121  0.55709580  0.31564316     0.41690
H3287       H  0.77110111  0.63793532  0.36687666     0.41370
H3288       H  0.77205411  0.69607226  0.32802827     0.39310
H3289       H  0.70702251  0.78285689  0.31552570     0.42440
H3290       H  0.64724999  0.78571623  0.39537635     0.37220
H3291       H  0.58505595  0.69808921  0.37737212     0.43340
H3292       H  0.58148830  0.64272849  0.31787780     0.39750
H3293       H  0.77387400  0.73409240  0.32984295     0.44670
H3294       H  0.62048147  0.78809009  0.36601359     0.43400
H3295       H  0.58068069  0.60661232  0.33462753     0.43530
H3296       H  0.73641358  0.55878325  0.35628041     0.43890
O3297       O  0.86072551  0.74086009  0.67369471    -0.74980
O3298       O  0.83576237  0.76490152  0.73224058    -0.53890
C3299       C  0.85484843  0.74636063  0.71635606     0.78750
O3300       O  0.85629040  0.86797600  0.53600390    -0.59580
O3301       O  0.83292370  0.84044097  0.47908235    -0.52610
C3302       C  0.85137643  0.86048215  0.49359535     0.70760
O3303       O  0.85730317  0.86562658  0.68854252    -0.74140
O3304       O  0.83575474  0.83500074  0.74361824    -0.54700
C3305       C  0.85341842  0.85657732  0.73114332     0.76770
O3306       O  0.85948933  0.74338089  0.52274684    -0.59280
O3307       O  0.83341313  0.76937729  0.46867297    -0.52400
C3308       C  0.85347777  0.75049753  0.48031926     0.73360
Zr3309     Zr  0.84257961  0.75624070  0.60107342     2.54710
O3310       O  0.89200666  0.76021251  0.59757383    -0.79850
O3311       O  0.84261091  0.69733742  0.59912608    -0.93270
Zr3312     Zr  0.84042103  0.85115808  0.61030939     2.64680
O3313       O  0.89007496  0.85035087  0.61169440    -0.98220
O3314       O  0.83612079  0.91001160  0.61269744    -0.80280
O3315       O  0.84251092  0.80230622  0.65186840    -0.83640
O3316       O  0.84132908  0.80490904  0.56011064    -2.18350
O3317       O  0.74477606  0.73712444  0.53752573    -0.67030
O3318       O  0.76791271  0.76426391  0.48014499    -0.51590
C3319       C  0.74965210  0.74391211  0.49494302     0.71740
O3320       O  0.75550102  0.86961528  0.68909022    -0.59940
O3321       O  0.77890638  0.84238321  0.74591663    -0.51910
C3322       C  0.76264340  0.86477501  0.73205124     0.73540
O3323       O  0.74562720  0.86450782  0.52884404    -0.71330
O3324       O  0.76912163  0.83786497  0.47143330    -0.50010
C3325       C  0.75077277  0.85840935  0.48517555     0.74930
O3326       O  0.74947422  0.73687628  0.68828743    -0.66660
O3327       O  0.77244867  0.76387981  0.74508859    -0.53860
C3328       C  0.75487914  0.74219695  0.73152907     0.73310
Zr3329     Zr  0.76311411  0.75351208  0.61049622     2.77540
O3330       O  0.71363185  0.75088622  0.61723234    -0.97410
O3331       O  0.77003919  0.69506304  0.60702226    -0.78230
Zr3332     Zr  0.75969143  0.84796188  0.60918839     2.70070
O3333       O  0.71380180  0.82685216  0.61953795    -0.79480
O3334       O  0.73489591  0.89911654  0.60354006    -0.98560
Zr3335     Zr  0.80274317  0.80156924  0.70000583     2.21500
Zr3336     Zr  0.80057510  0.80292009  0.51517422     2.11130
O3337       O  0.76068549  0.80067393  0.56340052    -2.47250
O3338       O  0.76110340  0.80098903  0.65690997    -0.79270
O3339       O  0.80156847  0.75389248  0.55896621    -0.71470
O3340       O  0.80054334  0.85046134  0.65464696    -2.32420
O3341       O  0.80412410  0.75360987  0.65228436    -2.28630
O3342       O  0.80003532  0.85113731  0.56334355    -0.73230
H3343       H  0.85737132  0.80549327  0.54052129     0.78770
H3344       H  0.80205231  0.86987391  0.67348976     0.79860
H3345       H  0.74437742  0.80028605  0.54466076     0.82080
H3346       H  0.80499512  0.73428190  0.67115373     0.79690
H3347       H  0.82156862  0.91502402  0.58998183     0.42720
H3348       H  0.74377692  0.91211419  0.57878768     0.41690
H3349       H  0.71103629  0.82605815  0.65381806     0.41370
H3350       H  0.70653887  0.76322552  0.59028778     0.39310
H3351       H  0.77456722  0.69031821  0.57390480     0.42440
H3352       H  0.83707945  0.69077676  0.63103614     0.37220
H3353       H  0.89653361  0.77849288  0.61876184     0.43340
H3354       H  0.89562940  0.83743481  0.58390964     0.39750
H3355       H  0.70901945  0.72799588  0.61022600     0.44670
H3356       H  0.86209534  0.69122537  0.59686162     0.43400
H3357       H  0.89557750  0.87284522  0.60430658     0.43530
H3358       H  0.71666705  0.89362219  0.59114555     0.43890
C3359       C  0.80475884  0.55238157  0.61020576    -0.02180
C3360       C  0.54864412  0.55080940  0.09445700    -0.02180
C3361       C  0.61708506  0.58687759  0.15037601    -0.11960
C3362       C  0.60635637  0.60715976  0.18577425     0.05050
C3363       C  0.57793862  0.61208823  0.18679096    -0.07240
C3364       C  0.56109636  0.59433810  0.15620759    -0.07990
C3365       C  0.57100526  0.57139581  0.12269770    -0.02540
C3366       C  0.60012941  0.57010316  0.11792997     0.04280
N3367       N  0.61330144  0.55338534  0.07998551     0.66780
H3368       H  0.63899769  0.58419669  0.14763774     0.15680
H3369       H  0.53947679  0.59831651  0.15929246     0.15390
N3370       N  0.56575904  0.63571687  0.21786292     0.74490
O3371       O  0.61043164  0.56395320  0.03898303    -0.38960
O3372       O  0.63302033  0.53458720  0.08833822    -0.38900
O3373       O  0.57742693  0.66251688  0.22527430    -0.39610
O3374       O  0.54174544  0.63183457  0.23278307    -0.39680
C3375       C  0.76919717  0.61320032  0.52050390    -0.11960
C3376       C  0.74496375  0.59786703  0.50778000     0.05050
C3377       C  0.73869273  0.56831842  0.53099559    -0.07240
C3378       C  0.75654957  0.55592128  0.56644781    -0.07990
C3379       C  0.78182776  0.57066757  0.57891108    -0.02540
C3380       C  0.78760725  0.60003170  0.55331671     0.04280
N3381       N  0.81281730  0.61680135  0.55801744     0.66780
H3382       H  0.77465548  0.63556550  0.50306938     0.15680
H3383       H  0.75066781  0.53362510  0.58260878     0.15390
N3384       N  0.71487353  0.54985192  0.51828150     0.74490
O3385       O  0.83252813  0.60932518  0.53156905    -0.38960
O3386       O  0.81299732  0.64379839  0.57894570    -0.38900
O3387       O  0.70472626  0.55211760  0.47794026    -0.39610
O3388       O  0.70530453  0.52894141  0.54589066    -0.39680
C3389       C  0.61059904  0.77952699  0.51873409    -0.12200
C3390       C  0.61121718  0.74548941  0.51634712     0.05050
C3391       C  0.59153150  0.72867609  0.54322161    -0.07240
C3392       C  0.57253063  0.74580674  0.57214962    -0.07990
C3393       C  0.57179680  0.78024532  0.57507458    -0.02540
C3394       C  0.59166708  0.79677994  0.54702419     0.04280
N3395       N  0.59318479  0.83147499  0.54679026     0.66780
H3396       H  0.62473527  0.79315537  0.49730864     0.15680
H3397       H  0.55850593  0.73158201  0.59262719     0.15390
N3398       N  0.58965083  0.69410643  0.53971049     0.74490
O3399       O  0.61337708  0.84521730  0.56547264    -0.38960
O3400       O  0.57871006  0.84731289  0.51858355    -0.38900
O3401       O  0.61089116  0.67690443  0.54049175    -0.39610
O3402       O  0.56675620  0.68058653  0.53573885    -0.39680
C3403       C  0.73210163  0.76208918  0.15292208    -0.11960
C3404       C  0.74379310  0.74427529  0.18937933     0.05050
C3405       C  0.77234125  0.74551956  0.19512459    -0.07240
C3406       C  0.78813431  0.76506619  0.16561501    -0.07990
C3407       C  0.77699009  0.78320358  0.12825507    -0.02540
C3408       C  0.74793774  0.78177444  0.12279605     0.04280
N3409       N  0.73337939  0.80153752  0.09025497     0.66780
H3410       H  0.71013089  0.76214903  0.14934752     0.15680
H3411       H  0.80996752  0.76525936  0.17089928     0.15390
N3412       N  0.78593820  0.72588536  0.22934387     0.74490
O3413       O  0.71617909  0.78817402  0.06376384    -0.38960
O3414       O  0.73023299  0.83125509  0.09962912    -0.38900
O3415       O  0.77827994  0.69711822  0.23649364    -0.39610
O3416       O  0.80779854  0.73559677  0.24775302    -0.39680
C3417       C  0.87616596  0.65198133  0.25345029    -0.11960
C3418       C  0.88828801  0.62410831  0.23333106     0.05050
C3419       C  0.91387587  0.61434395  0.25048356    -0.07240
C3420       C  0.92570551  0.63142956  0.28830183    -0.07990
C3421       C  0.91302904  0.65871907  0.31045235    -0.02540
C3422       C  0.88804019  0.66987163  0.29000581     0.04280
N3423       N  0.87449266  0.69969924  0.30372439     0.66780
H3424       H  0.85717697  0.66098911  0.23931176     0.15680
H3425       H  0.94572966  0.62367099  0.29909533     0.15390
N3426       N  0.92884405  0.58831486  0.22890271     0.74490
O3427       O  0.84878782  0.70090882  0.30480420    -0.38960
O3428       O  0.88754803  0.72585147  0.30829712    -0.38900
O3429       O  0.93453717  0.58978280  0.18591125    -0.39610
O3430       O  0.94139718  0.56814983  0.25396328    -0.39680
C3431       C  0.97035490  0.72018857  0.34218448    -0.11960
C3432       C  0.94725806  0.70520022  0.32008874     0.05050
C3433       C  0.94414192  0.71467288  0.27155844    -0.07240
C3434       C  0.96177482  0.73684707  0.25091058    -0.07990
C3435       C  0.98713581  0.74463197  0.26944483    -0.02540
C3436       C  0.49143528  0.73659845  0.31696419     0.04280
N3437       N  0.51718619  0.74230376  0.33946637     0.66780
H3438       H  0.97418227  0.71500539  0.37859840     0.15680
H3439       H  0.95695368  0.74436407  0.21561398     0.15390
N3440       N  0.92598358  0.70039242  0.23841052     0.74490
O3441       O  0.51856697  0.74313748  0.38352676    -0.38960
O3442       O  0.53907723  0.74083966  0.31627611    -0.38900
O3443       O  0.90767108  0.71814196  0.22099862    -0.39610
O3444       O  0.93512378  0.67740152  0.21347345    -0.39680
C3445       C  0.96079869  0.61956139  0.44344542    -0.11960
C3446       C  0.98879986  0.62398166  0.43767136     0.05050
C3447       C  0.49775374  0.64043408  0.39715528    -0.07240
C3448       C  0.97798176  0.65315926  0.36596855    -0.07990
C3449       C  0.94948232  0.65409770  0.37607305    -0.02540
C3450       C  0.94142129  0.63157220  0.41153168     0.04280
N3451       N  0.91603040  0.61457191  0.41022247     0.66780
H3452       H  0.95408504  0.60399580  0.47163961     0.15680
H3453       H  0.48527914  0.66309505  0.33346069     0.15390
N3454       N  0.52626082  0.64632577  0.38796057     0.74490
O3455       O  0.90785339  0.60323096  0.37175827    -0.38960
O3456       O  0.90702663  0.60180796  0.44726111    -0.38900
O3457       O  0.54385547  0.64297350  0.41961536    -0.39610
O3458       O  0.53352815  0.65903400  0.34984790    -0.39680
C3459       C  0.91574517  0.72621196  0.40573516    -0.11960
C3460       C  0.90862195  0.69547803  0.38600297     0.05050
C3461       C  0.88156088  0.68431027  0.40036919    -0.07240
C3462       C  0.86362697  0.70488064  0.42584379    -0.07990
C3463       C  0.87126964  0.73497455  0.44348030    -0.02540
C3464       C  0.89821200  0.74519588  0.43470842     0.04280
N3465       N  0.90850752  0.77456511  0.45564554     0.66780
H3466       H  0.93528675  0.73659765  0.39927066     0.15680
H3467       H  0.84364175  0.69578327  0.43532251     0.15390
N3468       N  0.87152042  0.65176841  0.39512766     0.74490
O3469       O  0.93336849  0.77681587  0.46620708    -0.38960
O3470       O  0.89303077  0.79856537  0.46309478    -0.38900
O3471       O  0.86435059  0.63749698  0.43214224    -0.39610
O3472       O  0.85910177  0.64375366  0.35841591    -0.39680
C3473       C  0.64114541  0.92458917  0.28742815    -0.11960
C3474       C  0.66008925  0.90772806  0.31580680     0.05050
C3475       C  0.66305132  0.87380617  0.30653571    -0.07240
C3476       C  0.64588847  0.85845360  0.27367268    -0.07990
C3477       C  0.62630881  0.87582090  0.24815186    -0.02540
C3478       C  0.62355666  0.90953354  0.25569022     0.04280
N3479       N  0.60257171  0.92898917  0.23373164     0.66780
H3480       H  0.63900129  0.95033056  0.29211930     0.15680
H3481       H  0.64835373  0.83266234  0.26715045     0.15390
N3482       N  0.68399700  0.85456760  0.32735686     0.74490
O3483       O  0.59694844  0.95691669  0.24955640    -0.38960
O3484       O  0.58905547  0.91860620  0.19939674    -0.38900
O3485       O  0.67737930  0.83243350  0.35537526    -0.39610
O3486       O  0.70710240  0.85307250  0.30798428    -0.39680
C3487       C  0.71126685  0.93371045  0.28165610    -0.11960
C3488       C  0.69359389  0.95082431  0.31236570     0.05050
C3489       C  0.68690436  0.98325837  0.29769312    -0.07240
C3490       C  0.69894692  0.49696177  0.25674749    -0.07990
C3491       C  0.71692975  0.97924559  0.22777344    -0.02540
C3492       C  0.72254734  0.94688906  0.24079610     0.04280
N3493       N  0.73943299  0.92647149  0.21192951     0.66780
H3494       H  0.71561737  0.90861231  0.28845982     0.15680
H3495       H  0.69452316  0.52198265  0.24813240     0.15390
N3496       N  0.66685995  0.50240444  0.32155626     0.74490
O3497       O  0.75527893  0.90601288  0.23016516    -0.38960
O3498       O  0.73616924  0.92621662  0.16824064    -0.38900
O3499       O  0.67427471  0.52065118  0.35461806    -0.39610
O3500       O  0.64481858  0.50875646  0.30096465    -0.39680
C3501       C  0.64994865  0.48508505  0.45358103    -0.11960
C3502       C  0.62160428  0.98025998  0.45170355     0.05050
C3503       C  0.61148705  0.95845320  0.41803874    -0.07240
C3504       C  0.62953498  0.94343912  0.38626820    -0.07990
C3505       C  0.65817774  0.94946419  0.38475259    -0.02540
C3506       C  0.66825835  0.96998813  0.42146535     0.04280
N3507       N  0.69695898  0.47412481  0.42935334     0.66780
H3508       H  0.65806611  0.50066806  0.48079706     0.15680
H3509       H  0.62035753  0.92508462  0.36471028     0.15390
N3510       N  0.58330260  0.94877389  0.41795672     0.74490
O3511       O  0.71265553  0.48290049  0.39680542    -0.38960
O3512       O  0.70624345  0.97221728  0.47034269    -0.38900
O3513       O  0.56451927  0.96962644  0.42097476    -0.39610
O3514       O  0.57705598  0.91950273  0.41042519    -0.39680
C3515       C  0.70485532  0.87358347  0.45285193    -0.11960
C3516       C  0.73334364  0.87539477  0.44890726     0.05050
C3517       C  0.74398338  0.89518213  0.41281891    -0.07240
C3518       C  0.72608427  0.91191818  0.38226338    -0.07990
C3519       C  0.69717168  0.90895939  0.38390550    -0.02540
C3520       C  0.68691156  0.88952016  0.42169334     0.04280
N3521       N  0.65831805  0.88725969  0.43184610     0.66780
H3522       H  0.69619551  0.85939900  0.48100868     0.15680
H3523       H  0.73553011  0.92828688  0.35796174     0.15390
N3524       N  0.77281888  0.90045869  0.40812729     0.74490
O3525       O  0.64256016  0.87279400  0.40400846    -0.38960
O3526       O  0.64978849  0.89421352  0.47242602    -0.38900
O3527       O  0.78916910  0.87681208  0.40831459    -0.39610
O3528       O  0.78167515  0.92815657  0.39727390    -0.39680
C3529       C  0.65047243  0.61842020  0.83450188    -0.11960
C3530       C  0.65760996  0.65128960  0.82498484     0.05050
C3531       C  0.64253765  0.66628490  0.78801399    -0.07240
C3532       C  0.62409988  0.64868272  0.76094102    -0.07990
C3533       C  0.61754392  0.61647541  0.77005040    -0.02540
C3534       C  0.63001919  0.60133420  0.80889965     0.04280
N3535       N  0.62202601  0.56931795  0.82360778     0.66780
H3536       H  0.65926375  0.60639952  0.86425385     0.15680
H3537       H  0.61417470  0.66095871  0.73216683     0.15390
N3538       N  0.64433907  0.70006556  0.77782629     0.74490
O3539       O  0.63754629  0.55280344  0.84911843    -0.38960
O3540       O  0.59792530  0.55959385  0.81812738    -0.38900
O3541       O  0.65673265  0.70841403  0.74106105    -0.39610
O3542       O  0.62553752  0.71832068  0.79299455    -0.39680
C3543       C  0.63598129  0.74727660  0.90901781    -0.11960
C3544       C  0.61694011  0.73049675  0.93624779     0.05050
C3545       C  0.61585522  0.69657808  0.93385424    -0.07240
C3546       C  0.63436967  0.68017040  0.90537353    -0.07990
C3547       C  0.65591870  0.69592552  0.88120928    -0.02540
C3548       C  0.65552403  0.73070500  0.88135741     0.04280
N3549       N  0.67468537  0.75007174  0.85600654     0.66780
H3550       H  0.63653781  0.77353898  0.91110193     0.15680
H3551       H  0.63354089  0.65397361  0.90598206     0.15390
N3552       N  0.59790171  0.67816207  0.96350892     0.74490
O3553       O  0.67448061  0.75013608  0.81195333    -0.38960
O3554       O  0.68668768  0.77290780  0.87688309    -0.38900
O3555       O  0.60488804  0.65038616  0.97758818    -0.39610
O3556       O  0.57539157  0.68981509  0.97694112    -0.39680
C3557       C  0.70109092  0.63457435  0.97975585    -0.11960
C3558       C  0.71889221  0.61031959  0.96483827     0.05050
C3559       C  0.72287245  0.60581641  0.91594170    -0.07240
C3560       C  0.70859076  0.62566482  0.88393360    -0.07990
C3561       C  0.69103159  0.65118034  0.89825822    -0.02540
C3562       C  0.68853471  0.65607502  0.94844908     0.04280
N3563       N  0.67640322  0.68424582  0.96995341     0.66780
H3564       H  0.69936607  0.63938639  0.01700026     0.15680
H3565       H  0.71145728  0.62141407  0.84682295     0.15390
N3566       N  0.74144803  0.58151581  0.89796426     0.74490
O3567       O  0.66024933  0.68056241  0.00401024    -0.38960
O3568       O  0.68743106  0.71157606  0.96473987    -0.38900
O3569       O  0.74700217  0.55655493  0.92143536    -0.39610
O3570       O  0.75097241  0.58377887  0.85701501    -0.39680
C3571       C  0.73861658  0.72795018  0.81457351    -0.11960
C3572       C  0.73891067  0.72152727  0.76620888     0.05050
C3573       C  0.72323930  0.69452983  0.75084835    -0.07240
C3574       C  0.70518651  0.67877968  0.78140747    -0.07990
C3575       C  0.70129485  0.68821504  0.82859502    -0.02540
C3576       C  0.72167624  0.71023076  0.84603478     0.04280
N3577       N  0.72716300  0.71356533  0.89495514     0.66780
H3578       H  0.75226786  0.74620847  0.82839913     0.15680
H3579       H  0.69453433  0.65811646  0.76714665     0.15390
N3580       N  0.72629555  0.68125777  0.70466389     0.74490
O3581       O  0.73822441  0.69006198  0.91564902    -0.38960
O3582       O  0.73028122  0.74160286  0.91208585    -0.38900
O3583       O  0.74932456  0.67099951  0.69146814    -0.39610
O3584       O  0.70552652  0.67436494  0.68072629    -0.39680
C3585       C  0.60416811  0.82621415  0.70032022    -0.11960
C3586       C  0.59552755  0.85750848  0.71320726     0.05050
C3587       C  0.57626809  0.87300342  0.68430034    -0.07240
C3588       C  0.56434886  0.85569919  0.64648885    -0.07990
C3589       C  0.56943760  0.82217232  0.63891295    -0.02540
C3590       C  0.59160695  0.80844442  0.66466950     0.04280
N3591       N  0.60057718  0.77559948  0.65809033     0.66780
H3592       H  0.62012973  0.81439140  0.72008453     0.15680
H3593       H  0.55082559  0.86873381  0.62378006     0.15390
N3594       N  0.56924647  0.90637053  0.69188020     0.74490
O3595       O  0.62443736  0.77030996  0.64321525    -0.38960
O3596       O  0.58761199  0.75274614  0.67702080    -0.38900
O3597       O  0.58755796  0.92667745  0.70141869    -0.39610
O3598       O  0.54523616  0.91620231  0.68512784    -0.39680
C3599       C  0.58363244  0.98050139  0.02115239    -0.11960
C3600       C  0.58015799  0.99045589  0.97465351     0.05050
C3601       C  0.56550195  0.51899545  0.96646068    -0.07240
C3602       C  0.55466654  0.53660070  0.00451288    -0.07990
C3603       C  0.56039552  0.52931358  0.05238336    -0.02540
C3604       C  0.57432460  0.99918473  0.05964710     0.04280
N3605       N  0.57769136  0.98568452  0.10540009     0.66780
H3606       H  0.59539279  0.95879780  0.02780160     0.15680
H3607       H  0.54103372  0.55555740  0.99447698     0.15390
N3608       N  0.56275578  0.53167349  0.91989877     0.74490
O3609       O  0.56782236  0.95817937  0.11436797    -0.38960
O3610       O  0.59178393  0.99992429  0.13598566    -0.38900
O3611       O  0.56011094  0.51286138  0.88520994    -0.39610
O3612       O  0.56307242  0.56192193  0.91325757    -0.39680
C3613       C  0.77926033  0.85487443  0.06125933    -0.11960
C3614       C  0.78558314  0.82147164  0.05407709     0.05050
C3615       C  0.78021714  0.80990156  0.00723534    -0.07240
C3616       C  0.77183017  0.83113113  0.97153669    -0.07990
C3617       C  0.76480588  0.86326326  0.98031815    -0.02540
C3618       C  0.76798525  0.87499005  0.02643818     0.04280
N3619       N  0.75834215  0.90671730  0.03933460     0.66780
H3620       H  0.78133245  0.86549495  0.09563461     0.15680
H3621       H  0.76699974  0.82098670  0.93745146     0.15390
N3622       N  0.77676766  0.77665147  0.99564808     0.74490
O3623       O  0.75356019  0.91388581  0.08149645    -0.38960
O3624       O  0.75588408  0.92837614  0.00891711    -0.38900
O3625       O  0.75351397  0.76468555  0.00282906    -0.39610
O3626       O  0.79086762  0.76505218  0.96243038    -0.39680
C3627       C  0.78170848  0.51808599  0.73577793    -0.11960
C3628       C  0.76441203  0.99319640  0.72319522     0.05050
C3629       C  0.76437062  0.98350068  0.67575657    -0.07240
C3630       C  0.77779650  0.00220333  0.64121228    -0.07990
C3631       C  0.79306267  0.53022926  0.65225077    -0.02540
C3632       C  0.79816029  0.53405344  0.70259535     0.04280
N3633       N  0.82156601  0.54981174  0.72252632     0.66780
H3634       H  0.78379448  0.52370280  0.77267685     0.15680
H3635       H  0.77730214  0.99363511  0.60535017     0.15390
N3636       N  0.75515661  0.95188099  0.66333820     0.74490
O3637       O  0.81891190  0.56561686  0.76032428    -0.38960
O3638       O  0.84507499  0.54014659  0.71146772    -0.38900
O3639       O  0.73171441  0.94240352  0.67519093    -0.39610
O3640       O  0.77261078  0.93144908  0.64932167    -0.39680
C3641       C  0.85075781  0.58112679  0.62643321    -0.11960
C3642       C  0.82226047  0.57950868  0.63428440     0.05050
C3643       C  0.81096556  0.60235542  0.66762849    -0.07240
C3644       C  0.82870588  0.61985968  0.69708853    -0.07990
C3645       C  0.85696883  0.61585478  0.69450332    -0.02540
C3646       C  0.86808938  0.59857672  0.65619866     0.04280
N3647       N  0.89696690  0.59650518  0.64871264     0.66780
H3648       H  0.86030321  0.56787557  0.59813907     0.15680
H3649       H  0.82021777  0.63479927  0.72492529     0.15390
N3650       N  0.78229208  0.60364915  0.67887676     0.74490
O3651       O  0.90797195  0.56921962  0.64131955    -0.38960
O3652       O  0.91034101  0.62188922  0.64006460    -0.38900
O3653       O  0.77481486  0.60464355  0.72120604    -0.39610
O3654       O  0.76508032  0.61080234  0.64806695    -0.39680
C3655       C  0.98335267  0.59866418  0.05647044    -0.11960
C3656       C  0.99444143  0.61554734  0.01897097     0.05050
C3657       C  0.52282009  0.61864690  0.01517545    -0.07240
C3658       C  0.53960286  0.60111573  0.04534714    -0.07990
C3659       C  0.52859866  0.57749922  0.07571533    -0.02540
C3660       C  0.00001178  0.58047758  0.08615569     0.04280
N3661       N  0.98717789  0.56611847  0.12608800     0.66780
H3662       H  0.96146862  0.59866191  0.06175854     0.15680
H3663       H  0.56145016  0.60244424  0.04017111     0.15390
N3664       N  0.53476415  0.63760794  0.97866857     0.74490
O3665       O  0.99357731  0.57567549  0.16656098    -0.38960
O3666       O  0.96526806  0.55054048  0.12087469    -0.38900
O3667       O  0.52497239  0.66502583  0.96860067    -0.39610
O3668       O  0.55369078  0.62581798  0.95382161    -0.39680
C3669       C  0.83126661  0.73165910  0.02299434    -0.11960
C3670       C  0.85845001  0.74107403  0.02414072     0.05050
C3671       C  0.86732805  0.76096914  0.06113412    -0.07240
C3672       C  0.84748833  0.77575782  0.08984409    -0.07990
C3673       C  0.81917980  0.77405114  0.07935968    -0.02540
C3674       C  0.81199016  0.74526277  0.05366215     0.04280
N3675       N  0.78730125  0.72701020  0.06107392     0.66780
H3676       H  0.82524068  0.71254710  0.99897553     0.15680
H3677       H  0.85475908  0.78913684  0.11969922     0.15390
N3678       N  0.89576128  0.76729981  0.06946243     0.74490
O3679       O  0.77741778  0.71104180  0.02732868    -0.38960
O3680       O  0.78229570  0.71662246  0.10147022    -0.38900
O3681       O  0.91245714  0.76924931  0.03590653    -0.39610
O3682       O  0.90387845  0.77382379  0.11028581    -0.39680
C3683       C  0.51387586  0.76095211  0.71657858    -0.11960
C3684       C  0.99306936  0.74269393  0.69642864     0.05050
C3685       C  0.99227264  0.74109729  0.64684807    -0.07240
C3686       C  0.01262556  0.75737370  0.62020700    -0.07990
C3687       C  0.53243346  0.77822679  0.64079896    -0.02540
C3688       C  0.53139544  0.78035739  0.69118367     0.04280
N3689       N  0.54461442  0.80442687  0.71930213     0.66780
H3690       H  0.51544199  0.76309654  0.75424251     0.15680
H3691       H  0.01168225  0.75565015  0.58245920     0.15390
N3692       N  0.97047610  0.72504826  0.62271484     0.74490
O3693       O  0.56048710  0.79486892  0.75106241    -0.38960
O3694       O  0.53258676  0.83122597  0.72542804    -0.38900
O3695       O  0.94609835  0.73127138  0.63380459    -0.39610
O3696       O  0.97515568  0.71052887  0.58449808    -0.39680
C3697       C  0.83759738  0.84387627  0.10937917    -0.11960
C3698       C  0.81466356  0.82737970  0.12858931     0.05050
C3699       C  0.80821719  0.83602030  0.17595670    -0.07240
C3700       C  0.82740076  0.85237346  0.20378782    -0.07990
C3701       C  0.85271568  0.86320190  0.18656212    -0.02540
C3702       C  0.85705198  0.86028954  0.13762743     0.04280
N3703       N  0.88138890  0.87229159  0.11600871     0.66780
H3704       H  0.84183387  0.84121588  0.07232663     0.15680
H3705       H  0.82187374  0.85726038  0.23986442     0.15390
N3706       N  0.78164032  0.83149626  0.19590391     0.74490
O3707       O  0.89419669  0.85474240  0.08695061    -0.38960
O3708       O  0.88748153  0.90191996  0.11971971    -0.38900
O3709       O  0.77926788  0.82112571  0.23718657    -0.39610
O3710       O  0.76133144  0.84462405  0.17687341    -0.39680
C3711       C  0.99764757  0.98526723  0.14344624    -0.11960
C3712       C  0.00081329  0.98926324  0.19193690     0.05050
C3713       C  0.02174774  0.51034585  0.20758549    -0.07240
C3714       C  0.03833097  0.52632471  0.17565495    -0.07990
C3715       C  0.53291134  0.52661066  0.12728494    -0.02540
C3716       C  0.51291582  0.00370286  0.11102305     0.04280
N3717       N  0.50785356  0.99815079  0.06215505     0.66780
H3718       H  0.48242898  0.96856233  0.13038532     0.15680
H3719       H  0.05483738  0.53989814  0.19067200     0.15390
N3720       N  0.02537028  0.51846358  0.25592914     0.74490
O3721       O  0.50786075  0.96947703  0.04640223    -0.38960
O3722       O  0.49802654  0.02035634  0.03720162    -0.38900
O3723       O  0.04796839  0.51286391  0.27516661    -0.39610
O3724       O  0.00924045  0.53859856  0.27479242    -0.39680
C3725       C  0.99052085  0.85600034  0.55865648    -0.11960
C3726       C  0.99078083  0.84829101  0.51067907     0.05050
C3727       C  0.00924014  0.82355542  0.49603946    -0.07240
C3728       C  0.02798968  0.81022678  0.52726195    -0.07990
C3729       C  0.52947277  0.81884043  0.57516343    -0.02540
C3730       C  0.50817290  0.84046618  0.59100836     0.04280
N3731       N  0.50218122  0.84520891  0.63959365     0.66780
H3732       H  0.97563295  0.87330162  0.57173728     0.15680
H3733       H  0.04047672  0.79103692  0.51286150     0.15390
N3734       N  0.00868885  0.80981248  0.44988317     0.74490
O3735       O  0.50233856  0.87372220  0.65596138    -0.38960
O3736       O  0.48747790  0.82445053  0.65975311    -0.38900
O3737       O  0.03075998  0.80578633  0.42770886    -0.39610
O3738       O  0.98776010  0.79470183  0.43656889    -0.39680
C3739       C  0.86160553  0.99383096  0.55348171    -0.11960
C3740       C  0.85838672  0.99879050  0.50522754     0.05050
C3741       C  0.83613370  0.51839755  0.49175253    -0.07240
C3742       C  0.81901427  0.53308370  0.52531681    -0.07990
C3743       C  0.82267551  0.53031637  0.57457202    -0.02540
C3744       C  0.84430107  0.50852640  0.58769748     0.04280
N3745       N  0.84982549  0.50074352  0.63531422     0.66780
H3746       H  0.87786998  0.97808838  0.56521152     0.15680
H3747       H  0.80271173  0.54707040  0.51052971     0.15390
N3748       N  0.82973451  0.02332750  0.44359119     0.74490
O3749       O  0.83475014  0.48042524  0.65560302    -0.38960
O3750       O  0.87382279  0.50443364  0.65013492    -0.38900
O3751       O  0.81619326  0.00203369  0.42204562    -0.39610
O3752       O  0.83193158  0.55132248  0.42635929    -0.39680
C3753       C  0.89455675  0.93527303  0.92055663    -0.11960
C3754       C  0.91856736  0.94675237  0.89924118     0.05050
C3755       C  0.93300042  0.97118180  0.92567716    -0.07240
C3756       C  0.92056588  0.48734324  0.96418164    -0.07990
C3757       C  0.89619706  0.97605668  0.98319335    -0.02540
C3758       C  0.88502101  0.94725196  0.96352925     0.04280
N3759       N  0.86469569  0.92891258  0.98824242     0.66780
H3760       H  0.88406168  0.91458679  0.90597610     0.15680
H3761       H  0.93056659  0.50798607  0.98021209     0.15390
N3762       N  0.96105155  0.47806252  0.91769017     0.74490
O3763       O  0.84765853  0.91183072  0.96618942    -0.38960
O3764       O  0.86658543  0.92566014  0.03195125    -0.38900
O3765       O  0.96745425  0.50560648  0.90219319    -0.39610
O3766       O  0.97826129  0.46307608  0.94215377    -0.39680
C3767       C  0.94074844  0.98180798  0.81683705    -0.11960
C3768       C  0.94388357  0.94769092  0.81755024     0.05050
C3769       C  0.95762144  0.93341585  0.77833028    -0.07240
C3770       C  0.97402237  0.95261713  0.74998147    -0.07990
C3771       C  0.97423713  0.48636209  0.75470523    -0.02540
C3772       C  0.95456931  0.50120907  0.78403385     0.04280
N3773       N  0.94577224  0.53424524  0.77721191     0.66780
H3774       H  0.92651500  0.49358109  0.84037792     0.15680
H3775       H  0.48627321  0.94093034  0.72302387     0.15390
N3776       N  0.95502412  0.89988495  0.76570191     0.74490
O3777       O  0.92184368  0.54249428  0.78851750    -0.38960
O3778       O  0.96010416  0.55408491  0.75458002    -0.38900
O3779       O  0.94159909  0.89270817  0.72955589    -0.39610
O3780       O  0.47143245  0.87920726  0.78173034    -0.39680
C3781       C  0.91082495  0.87319153  0.81909047    -0.11960
C3782       C  0.90784909  0.90685405  0.82904375     0.05050
C3783       C  0.88505738  0.92250707  0.80772397    -0.07240
C3784       C  0.86703776  0.90504527  0.77859378    -0.07990
C3785       C  0.87098740  0.87211133  0.76781541    -0.02540
C3786       C  0.89382281  0.85622844  0.78749402     0.04280
N3787       N  0.90197370  0.82418131  0.77236435     0.66780
H3788       H  0.92818595  0.86009008  0.83220247     0.15680
H3789       H  0.85023070  0.91788037  0.76255403     0.15390
N3790       N  0.88039875  0.95662808  0.81296460     0.74490
O3791       O  0.92679393  0.81604965  0.77271847    -0.38960
O3792       O  0.88468889  0.80381126  0.75842971    -0.38900
O3793       O  0.88394085  0.97465522  0.77796025    -0.39610
O3794       O  0.86517042  0.96660473  0.84571623    -0.39680
C3795       C  0.94069281  0.88165046  0.91334729    -0.11960
C3796       C  0.95198951  0.90387166  0.88093288     0.05050
C3797       C  0.98139920  0.90478711  0.87787312    -0.07240
C3798       C  0.49695372  0.88502550  0.90734066    -0.07990
C3799       C  0.98489412  0.86511698  0.94062168    -0.02540
C3800       C  0.95646315  0.86257630  0.94292309     0.04280
N3801       N  0.94323187  0.84080576  0.97501606     0.66780
H3802       H  0.91889996  0.87877637  0.91566640     0.15680
H3803       H  0.51899230  0.88678331  0.90615080     0.15390
N3804       N  0.99674335  0.92512037  0.84677784     0.74490
O3805       O  0.91953727  0.84698969  0.99002598    -0.38960
O3806       O  0.95393782  0.81381882  0.98476983    -0.38900
O3807       O  0.49816970  0.95521762  0.85432822    -0.39610
O3808       O  0.01481865  0.91224167  0.82106683    -0.39680
loop_ 
_geom_bond_atom_site_label_1 
_geom_bond_atom_site_label_2 
_geom_bond_distance 
_geom_bond_site_symmetry_2 
_ccdc_geom_bond_type 
C1          C898   1.590       .  S
C1          C912   1.552       .  S
C1          C926   1.595       .  S
C1          C940   1.572       .  S
O2          Zr14   2.321       .  S
O2            C4   1.263       .  A
O3          Zr40   2.479       .  S
O3            C4   1.303       .  A
C4         C1148   1.438       .  S
O5          Zr17   2.409       .  S
O5            C7   1.284       .  A
O6          Zr41   2.385       .  S
O6            C7   1.278       .  A
C7         C1298   1.418       .  S
O8          Zr17   2.472       .  S
O8           C10   1.294       .  A
O9          Zr40   2.474       .  S
O9           C10   1.297       .  A
C10         C884   1.524       .  S
O11         Zr14   2.408       .  S
O11          C13   1.279       .  A
O12         Zr41   2.466       .  S
O12          C13   1.293       .  A
C13         C856   1.504       .  S
Zr14         O20   2.380       .  S
Zr14         O21   2.326       .  S
Zr14         O44   2.317       .  S
Zr14         O46   2.381       .  S
Zr14        O967   2.436       .  S
Zr14       O1920   2.434       .  S
O15        Zr966   2.436   1_545  S
O15          H58   0.990       .  S
O16       Zr1918   2.434   1_455  S
O16          H57   0.990       .  S
O16          H61   0.990       .  S
Zr17         O21   2.373       .  S
Zr17         O20   2.354       .  S
Zr17         O45   2.341       .  S
Zr17         O47   2.382       .  S
Zr17         O19   2.431       .  S
Zr17        O970   2.430       .  S
O18        Zr969   2.430   1_545  S
O18          H59   0.990       .  S
O18          H62   0.990       .  S
O19          H52   0.990       .  S
O20         Zr40   2.386       .  S
O21         Zr41   2.391       .  S
O21          H48   0.966       .  S
O22         Zr34   2.364       .  S
O22          C24   1.270       .  A
O23         Zr41   2.410       .  S
O23          C24   1.289       .  A
C24        C2168   1.421       .  S
O25         Zr37   2.370       .  S
O25          C27   1.275       .  A
O26         Zr40   2.449       .  S
O26          C27   1.297       .  A
C27         C446   1.445       .  S
O28         Zr37   2.431       .  S
O28          C30   1.286       .  A
O29         Zr41   2.488       .  S
O29          C30   1.296       .  A
C30         C845   1.523       .  S
O31         Zr34   2.431       .  S
O31          C33   1.283       .  A
O32         Zr40   2.494       .  S
O32          C33   1.299       .  A
C33         C870   1.522       .  S
Zr34         O42   2.384       .  S
Zr34         O43   2.339       .  S
Zr34         O46   2.354       .  S
Zr34         O44   2.372       .  S
Zr34         O35   2.437       .  S
Zr34       O1940   2.431       .  S
O35          H55   0.990       .  S
O35          H60   0.989       .  S
O36       Zr1938   2.431   1_455  S
O36          H56   0.991       .  S
Zr37         O43   2.392       .  S
Zr37         O42   2.353       .  S
Zr37         O47   2.348       .  S
Zr37         O45   2.376       .  S
Zr37         O38   2.435       .  S
Zr37         O39   2.435       .  S
O38          H54   0.990       .  S
O39          H53   0.990       .  S
O39          H63   0.990       .  S
Zr40         O43   2.398       .  S
Zr40         O45   2.396       .  S
Zr40         O46   2.381       .  S
Zr41         O42   2.393       .  S
Zr41         O44   2.363       .  S
Zr41         O47   2.386       .  S
O42          H50   0.966       .  S
O45          H49   0.965       .  S
O46          H51   0.965       .  S
O64         Zr76   2.332       .  S
O64          C66   1.268       .  A
O65        Zr102   2.412       .  S
O65          C66   1.286       .  A
C66        C2188   1.414   1_556  S
O67         Zr79   2.350       .  S
O67          C69   1.272       .  A
O68        Zr103   2.407       .  S
O68          C69   1.286       .  A
C69         C443   1.423       .  S
O70         Zr79   2.428       .  S
O70          C72   1.284       .  A
O71        Zr102   2.412       .  S
O71          C72   1.282       .  A
C72         C814   1.464   1_556  S
O73         Zr76   2.419       .  S
O73          C75   1.285       .  A
O74        Zr103   2.440       .  S
O74          C75   1.283       .  A
C75         C828   1.509       .  S
Zr76         O82   2.385       .  S
Zr76         O83   2.327       .  S
Zr76        O106   2.331       .  S
Zr76        O108   2.379       .  S
Zr76         O77   2.436       .  S
Zr76       O1982   2.439       .  S
O77         H120   0.990       .  S
O78       Zr1980   2.439   1_455  S
O78         H119   0.990       .  S
O78         H123   0.990       .  S
Zr79         O83   2.393       .  S
Zr79         O82   2.340       .  S
Zr79        O107   2.347       .  S
Zr79        O109   2.380       .  S
Zr79         O80   2.434       .  S
Zr79         O81   2.435       .  S
O80         H121   0.988       .  S
O80         H124   0.990       .  S
O81         H114   0.990       .  S
O82        Zr102   2.380       .  S
O83        Zr103   2.387       .  S
O83         H110   0.966       .  S
O84         Zr96   2.349       .  S
O84          C86   1.272       .  A
O85        Zr103   2.409       .  S
O85          C86   1.285       .  A
C86        C2097   1.427       .  S
O87         Zr99   2.420       .  S
O87          C89   1.286       .  A
O88        Zr102   2.404       .  S
O88          C89   1.282       .  A
C89         C323   1.444   1_556  S
O90         Zr99   2.487       .  S
O90          C92   1.296       .  A
O91        Zr103   2.389       .  S
O91          C92   1.277       .  A
C92         C789   1.485       .  S
O93         Zr96   2.444       .  S
O93          C95   1.287       .  A
O94        Zr102   2.396       .  S
O94          C95   1.279       .  A
C95         C800   1.466   1_556  S
Zr96        O104   2.393       .  S
Zr96        O105   2.330       .  S
Zr96        O108   2.321       .  S
Zr96        O106   2.380       .  S
Zr96         O97   2.425       .  S
Zr96       O2002   2.435       .  S
O97         H117   0.988       .  S
O97         H122   0.989       .  S
O98       Zr2000   2.435   1_455  S
O98         H118   0.990       .  S
Zr99        O105   2.385       .  S
Zr99        O104   2.360       .  S
Zr99        O109   2.336       .  S
Zr99        O107   2.384       .  S
Zr99        O100   2.434       .  S
Zr99        O101   2.432       .  S
O100        H116   0.990       .  S
O101        H115   0.990       .  S
O101        H125   0.990       .  S
Zr102       O105   2.379       .  S
Zr102       O107   2.384       .  S
Zr102       O108   2.373       .  S
Zr103       O104   2.395       .  S
Zr103       O106   2.362       .  S
Zr103       O109   2.378       .  S
O104        H112   0.966       .  S
O107        H111   0.966       .  S
O108        H113   0.963       .  S
O126       Zr138   2.327       .  S
O126        C128   1.261       .  A
O127       Zr164   2.494       .  S
O127        C128   1.307       .  A
C128       C1278   1.444       .  S
O129       Zr141   2.359       .  S
O129        C131   1.273       .  A
O130       Zr165   2.442       .  S
O130        C131   1.289       .  A
C131        C261   1.433       .  S
O132       Zr141   2.425       .  S
O132        C134   1.284       .  A
O133       Zr164   2.490       .  S
O133        C134   1.300       .  A
C134        C761   1.496       .  S
O135       Zr138   2.394       .  S
O135        C137   1.276       .  A
O136       Zr165   2.487       .  S
O136        C137   1.298       .  A
C137        C744   1.481       .  S
Zr138       O144   2.370       .  S
Zr138       O145   2.345       .  S
Zr138       O168   2.345       .  S
Zr138       O170   2.382       .  S
Zr138       O139   2.437       .  S
Zr138      O1092   2.431       .  S
O139        H182   0.991   1_556  S
O140      Zr1090   2.431   1_545  S
O140        H181   0.989       .  S
O140        H185   0.990       .  S
Zr141       O145   2.367       .  S
Zr141       O144   2.325       .  S
Zr141       O169   2.348       .  S
Zr141       O171   2.383       .  S
Zr141       O142   2.437   1_556  S
Zr141       O143   2.427       .  S
O142        H183   0.989       .  S
O142        H186   0.990       .  S
O143        H176   0.990       .  S
O144       Zr164   2.374       .  S
O145       Zr165   2.394       .  S
O145        H172   0.965       .  S
O146       Zr158   2.388       .  S
O146        C148   1.277       .  A
O147       Zr165   2.427       .  S
O147        C148   1.287       .  A
C148       C1168   1.435       .  S
O149       Zr161   2.341       .  S
O149        C151   1.268       .  A
O150       Zr164   2.486       .  S
O150        C151   1.297       .  A
C151        C466   1.453       .  S
O152       Zr161   2.380       .  S
O152        C154   1.275       .  A
O153       Zr165   2.514       .  S
O153        C154   1.303       .  A
C154        C730   1.498       .  S
O155       Zr158   2.419       .  S
O155        C157   1.282       .  A
O156       Zr164   2.502       .  S
O156        C157   1.304       .  A
C157        C772   1.499       .  S
Zr158       O166   2.369       .  S
Zr158       O167   2.342       .  S
Zr158       O170   2.357       .  S
Zr158       O168   2.379       .  S
Zr158       O159   2.436       .  S
Zr158      O1112   2.435       .  S
O159        H179   0.990       .  S
O159        H184   0.990       .  S
O160      Zr1110   2.435   1_545  S
O160        H180   0.990       .  S
Zr161       O167   2.354       .  S
Zr161       O166   2.348       .  S
Zr161       O171   2.338       .  S
Zr161       O169   2.359       .  S
Zr161       O162   2.434       .  S
Zr161       O163   2.429       .  S
O162        H178   0.991       .  S
O163        H177   0.990       .  S
O163        H187   0.990       .  S
Zr164       O167   2.377       .  S
Zr164       O169   2.402       .  S
Zr164       O170   2.414       .  S
Zr165       O166   2.391       .  S
Zr165       O168   2.410       .  S
Zr165       O171   2.403       .  S
O166        H174   0.965       .  S
O169        H173   0.966       .  S
O170        H175   0.966       .  S
C188        C674   1.605       .  S
C188        C691   1.563       .  S
C188        C705   1.594       .  S
C188        C719   1.602       .  S
C189        C618   1.582       .  S
C189        C632   1.603       .  S
C189        C649   1.597       .  S
C189        C663   1.606       .  S
C190        C565   1.568       .  S
C190        C576   1.638       .  S
C190        C593   1.620       .  S
C190        C604   1.629       .  S
O191      Zr2107   2.374       .  S
O191       C2097   1.274       .  A
O192       Zr229   2.395       .  S
O192        C193   1.286   1_455  A
C193       O2095   1.274       .  A
C193       C1990   1.427       .  S
O194      Zr2110   2.312   1_565  S
O194        C196   1.262       .  A
O195       Zr230   2.480       .  S
O195       C2100   1.302   1_445  A
C196       O2099   1.302   1_565  A
C196        C956   1.438       .  S
O197      Zr2110   2.387   1_565  S
O197       C2103   1.275   1_565  A
O198       Zr229   2.454       .  S
O198        C199   1.291   1_455  A
C199       O2101   1.275   1_545  A
C199       C2819   1.468   1_545  S
O200      Zr2107   2.449       .  S
O200       C2106   1.288       .  A
O201       Zr230   2.472       .  S
O201        C202   1.295       .  A
C202       O2104   1.288       .  A
C202       C2494   1.502   1_455  S
Zr203      O2095   2.374   1_455  S
Zr203      O2104   2.449       .  S
Zr203       O209   2.383       .  S
Zr203       O210   2.349       .  S
Zr203       O233   2.345       .  S
Zr203       O235   2.387       .  S
Zr203       O205   2.431       .  S
Zr203      O2108   2.434   1_455  S
O204      Zr2107   2.434       .  S
O204        H247   0.990       .  S
O205        H246   0.990       .  S
O205       H2154   0.989       .  S
Zr206      O2098   2.312   1_445  S
Zr206      O2101   2.387   1_445  S
Zr206       O210   2.375       .  S
Zr206       O209   2.333       .  S
Zr206       O234   2.340       .  S
Zr206       O236   2.379       .  S
Zr206      O2111   2.438   1_455  S
Zr206      O1160   2.438   1_545  S
O207      Zr2110   2.438       .  S
O207        H248   0.990       .  S
O207        H251   0.990   1_545  S
O208      Zr1158   2.438       .  S
O208        H241   0.989       .  S
O209       Zr229   2.371       .  S
O210       Zr230   2.374       .  S
O210       H2141   0.966   1_455  S
O211       Zr223   2.374       .  S
O211        C213   1.275       .  A
O212       Zr230   2.431       .  S
O212        C213   1.293       .  A
C213        C387   1.441       .  S
O214       Zr226   2.427       .  S
O214        C216   1.288       .  A
O215       Zr229   2.391       .  S
O215        C216   1.278   1_545  A
C216       C1100   1.435       .  S
O217       Zr226   2.475       .  S
O217        C219   1.293       .  A
O218       Zr230   2.453       .  S
O218        C219   1.293   1_545  A
C219       C1598   1.498       .  S
O220       Zr223   2.425       .  S
O220        C222   1.284       .  A
O221       Zr229   2.467       .  S
O221        C222   1.292       .  A
C222        C677   1.499       .  S
Zr223       O231   2.368       .  S
Zr223       O232   2.340       .  S
Zr223       O235   2.354       .  S
Zr223       O233   2.396       .  S
Zr223       O224   2.439       .  S
Zr223       O225   2.434       .  S
O224        H244   0.990       .  S
O224        H249   0.990       .  S
O225        H245   0.989       .  S
Zr226       O232   2.377   1_565  S
Zr226       O231   2.348   1_565  S
Zr226       O236   2.356   1_565  S
Zr226       O234   2.379   1_565  S
Zr226       O227   2.432       .  S
Zr226      O1180   2.433       .  S
O227        H243   0.990   1_565  S
O228      Zr1178   2.433       .  S
O228        H242   0.990       .  S
O228        H252   0.990       .  S
Zr229       O232   2.383       .  S
Zr229       O234   2.387       .  S
Zr229       O235   2.387       .  S
Zr230       O231   2.393       .  S
Zr230       O233   2.395       .  S
Zr230       O236   2.381       .  S
O231        H239   0.965       .  S
O234       H1190   0.966   1_545  S
O235        H240   0.966       .  S
H237       O2114   0.966       .  S
H238       O1186   0.966       .  S
H250       O2109   0.989       .  S
O253      Zr2169   2.432       .  S
O253       C2159   1.283   1_554  A
O254       Zr291   2.406   1_556  S
O254        C255   1.280       .  A
C255       O2157   1.283   1_456  A
C255       C2847   1.462   1_455  S
O256       Zr268   2.464       .  S
O256        C258   1.291       .  A
O257       Zr292   2.416       .  S
O257        C258   1.284       .  A
C258        C621   1.477       .  S
O259       Zr268   2.433       .  S
O259        C261   1.289   1_554  A
O260       Zr291   2.384   1_556  S
O260        C261   1.275       .  A
O262      Zr2169   2.322       .  S
O262       C2168   1.265       .  A
O263       Zr292   2.423       .  S
O263        C264   1.288       .  A
C264       O2166   1.265   1_455  A
C264       C1928   1.421   1_455  S
Zr265      O2157   2.432   1_455  S
Zr265      O2166   2.322   1_455  S
Zr265       O271   2.322       .  S
Zr265       O272   2.380       .  S
Zr265       O295   2.382       .  S
Zr265       O297   2.331       .  S
Zr265       O266   2.431       .  S
Zr265      O2171   2.440   1_455  S
O266        H309   0.990       .  S
O267      Zr2169   2.440       .  S
O267        H308   0.990       .  S
O267        H312   0.990       .  S
Zr268       O272   2.364       .  S
Zr268       O271   2.372       .  S
Zr268       O296   2.363       .  S
Zr268       O298   2.345       .  S
Zr268       O269   2.435       .  S
Zr268       O270   2.434       .  S
O269        H310   0.989       .  S
O269        H313   0.989       .  S
O270        H303   0.990       .  S
O271       Zr291   2.379       .  S
O272       Zr292   2.400       .  S
O272        H299   0.966       .  S
O273      Zr2189   2.418       .  S
O273       C2179   1.285       .  A
O274       Zr292   2.478       .  S
O274        C275   1.292       .  A
C275       O2177   1.285       .  A
C275       C2483   1.516   1_455  S
O276       Zr288   2.432       .  S
O276        C278   1.286   1_554  A
O277       Zr291   2.419   1_556  S
O277        C278   1.283       .  A
C278        C688   1.464       .  S
O279       Zr288   2.364       .  S
O279        C281   1.273       .  A
O280       Zr292   2.411       .  S
O280        C281   1.288       .  A
C281        C390   1.428       .  S
O282      Zr2189   2.338       .  S
O282       C2188   1.268       .  A
O283       Zr291   2.405   1_556  S
O283        C284   1.287   1_456  A
C284       O2186   1.268       .  A
C284       C1970   1.414   1_554  S
Zr285      O2177   2.418       .  S
Zr285      O2186   2.338   1_455  S
Zr285       O293   2.332       .  S
Zr285       O294   2.384       .  S
Zr285       O297   2.389       .  S
Zr285       O295   2.337       .  S
Zr285       O286   2.437       .  S
Zr285      O2191   2.432   1_455  S
O286        H306   0.990       .  S
O286       H2215   0.990       .  S
O287      Zr2189   2.432       .  S
O287        H307   0.990       .  S
Zr288       O294   2.352       .  S
Zr288       O293   2.389       .  S
Zr288       O298   2.377       .  S
Zr288       O296   2.348       .  S
Zr288       O289   2.436       .  S
Zr288       O290   2.440       .  S
O289        H305   0.990       .  S
O290        H304   0.990       .  S
O290        H314   0.990       .  S
Zr291       O294   2.382       .  S
Zr291       O296   2.386       .  S
Zr291       O297   2.367       .  S
Zr292       O293   2.388       .  S
Zr292       O295   2.361       .  S
Zr292       O298   2.389       .  S
O293        H301   0.966       .  S
O296        H300   0.966       .  S
O297       H2206   0.964   1_455  S
H302       O2201   0.964       .  S
H311       O2190   0.990       .  S
O315      Zr1279   2.352       .  S
O315       C1269   1.268       .  A
O316       Zr353   2.524       .  S
O316        C317   1.303   1_545  A
C317       O1267   1.268       .  A
C317       C1853   1.504   1_554  S
O318       Zr330   2.446   1_556  S
O318        C320   1.287   1_556  A
O319       Zr354   2.491       .  S
O319        C320   1.302       .  A
C320        C702   1.496   1_554  S
O321       Zr330   2.415       .  S
O321        C323   1.276       .  A
O322       Zr353   2.414       .  S
O322        C323   1.279       .  A
O324      Zr1279   2.320   1_556  S
O324       C1278   1.262       .  A
O325       Zr354   2.500       .  S
O325        C326   1.307   1_544  A
C326       O1276   1.262       .  A
C326       C1080   1.444       .  S
Zr327      O1267   2.352   1_545  S
Zr327      O1276   2.320   1_544  S
Zr327       O333   2.337       .  S
Zr327       O334   2.364       .  S
Zr327       O357   2.362   1_545  S
Zr327       O359   2.335       .  S
Zr327       O328   2.436   1_544  S
Zr327      O1281   2.432   1_545  S
O328        H371   0.991   1_565  S
O329      Zr1279   2.432       .  S
O329        H370   0.988       .  S
O329        H374   0.989       .  S
Zr330       O334   2.347       .  S
Zr330       O333   2.373       .  S
Zr330       O358   2.370       .  S
Zr330       O360   2.370       .  S
Zr330       O331   2.436   1_554  S
Zr330       O332   2.433       .  S
O331        H372   0.990       .  S
O331        H375   0.990       .  S
O332        H365   0.990       .  S
O333       Zr353   2.387       .  S
O334       Zr354   2.390       .  S
O334        H361   0.960       .  S
O335      Zr1299   2.412       .  S
O335       C1289   1.282       .  A
O336       Zr354   2.537       .  S
O336        C337   1.309   1_545  A
C337       O1287   1.282       .  A
C337       C1587   1.515       .  S
O338       Zr350   2.391       .  S
O338        C340   1.279       .  A
O339       Zr353   2.496       .  S
O339        C340   1.299       .  A
C340        C562   1.506       .  S
O341       Zr350   2.378       .  S
O341        C343   1.275       .  A
O342       Zr354   2.475       .  S
O342        C343   1.296       .  A
C343        C407   1.453       .  S
O344      Zr1299   2.372       .  S
O344       C1298   1.275       .  A
O345       Zr353   2.403       .  S
O345        C346   1.282       .  A
C346       O1296   1.275   1_545  A
C346        C959   1.418   1_545  S
Zr347      O1287   2.412   1_545  S
Zr347      O1296   2.372   1_545  S
Zr347       O355   2.339       .  S
Zr347       O356   2.365       .  S
Zr347       O359   2.367       .  S
Zr347       O357   2.366   1_545  S
Zr347       O348   2.438       .  S
Zr347      O1301   2.435   1_545  S
O348        H368   0.990       .  S
O348       H1325   0.990   1_545  S
O349      Zr1299   2.435       .  S
O349        H369   0.989       .  S
Zr350       O356   2.355       .  S
Zr350       O355   2.358       .  S
Zr350       O360   2.364       .  S
Zr350       O358   2.352       .  S
Zr350       O351   2.434       .  S
Zr350       O352   2.430       .  S
O351        H367   0.990       .  S
O352        H366   0.990       .  S
O352        H376   0.990       .  S
Zr353       O356   2.394       .  S
Zr353       O358   2.420       .  S
Zr353       O359   2.399       .  S
Zr354       O355   2.391       .  S
Zr354       O357   2.401   1_545  S
Zr354       O360   2.416       .  S
O355        H363   0.964       .  S
O358        H362   0.966       .  S
O359       H1316   0.966   1_545  S
H364       O1311   0.966       .  S
H373       O1300   0.990       .  S
C377        C551   1.572       .  S
C377        C758   1.609       .  S
C377        C817   1.601       .  S
C377        C842   1.612       .  S
C378        C537   1.606       .  S
C378        C733   1.573       .  S
C378        C831   1.589       .  S
C378        C873   1.602       .  S
O379       Zr391   2.444       .  S
O379        C381   1.286       .  A
O380       Zr417   2.514       .  S
O380        C381   1.304       .  A
C381        C534   1.522       .  S
O382       Zr394   2.475       .  S
O382        C384   1.292       .  A
O383       Zr418   2.463       .  S
O383        C384   1.291       .  A
C384        C506   1.508       .  S
O385       Zr394   2.367       .  S
O385        C387   1.273       .  A
O386       Zr417   2.437       .  S
O386        C387   1.293       .  A
O388       Zr391   2.359       .  S
O388        C390   1.273       .  A
O389       Zr418   2.416       .  S
O389        C390   1.289       .  A
Zr391       O397   2.336       .  S
Zr391       O398   2.390       .  S
Zr391       O421   2.390       .  S
Zr391       O423   2.352       .  S
Zr391       O392   2.432       .  S
Zr391       O393   2.433       .  S
O392        H435   0.990       .  S
O393        H434   0.990       .  S
O393        H438   0.990       .  S
Zr394       O398   2.341       .  S
Zr394       O397   2.388       .  S
Zr394       O422   2.398       .  S
Zr394       O424   2.340       .  S
Zr394       O395   2.429       .  S
Zr394       O396   2.424       .  S
O395        H436   0.989       .  S
O395        H439   0.990       .  S
O396        H429   0.990       .  S
O397       Zr417   2.381       .  S
O398       Zr418   2.383       .  S
O398        H425   0.965       .  S
O399       Zr411   2.432       .  S
O399        C401   1.285       .  A
O400       Zr418   2.470       .  S
O400        C401   1.293       .  A
C401        C548   1.496       .  S
O402       Zr414   2.518       .  S
O402        C404   1.303       .  A
O403       Zr417   2.475       .  S
O403        C404   1.296       .  A
C404        C520   1.529       .  S
O405       Zr414   2.463       .  S
O405        C407   1.295       .  A
O406       Zr418   2.404       .  S
O406        C407   1.281       .  A
O408       Zr411   2.365       .  S
O408        C410   1.273       .  A
O409       Zr417   2.473       .  S
O409        C410   1.300       .  A
C410        C463   1.457       .  S
Zr411       O419   2.353       .  S
Zr411       O420   2.379       .  S
Zr411       O423   2.390       .  S
Zr411       O421   2.350       .  S
Zr411       O412   2.436       .  S
Zr411       O413   2.432       .  S
O412        H432   0.989       .  S
O412        H437   0.990       .  S
O413        H433   0.990       .  S
Zr414       O420   2.358       .  S
Zr414       O419   2.388       .  S
Zr414       O424   2.388       .  S
Zr414       O422   2.363       .  S
Zr414       O415   2.434       .  S
Zr414       O416   2.433       .  S
O415        H431   0.990       .  S
O416        H430   0.990       .  S
O416        H440   0.990       .  S
Zr417       O420   2.386       .  S
Zr417       O422   2.416       .  S
Zr417       O423   2.384       .  S
Zr418       O419   2.397       .  S
Zr418       O421   2.387       .  S
Zr418       O424   2.394       .  S
O419        H427   0.966       .  S
O422        H426   0.966       .  S
O423        H428   0.966       .  S
O441       Zr453   2.354       .  S
O441        C443   1.271       .  A
O442       Zr479   2.404       .  S
O442        C443   1.287       .  A
O444       Zr456   2.368       .  S
O444        C446   1.274       .  A
O445       Zr480   2.449       .  S
O445        C446   1.295       .  A
O447       Zr456   2.460       .  S
O447        C449   1.290       .  A
O448       Zr479   2.467       .  S
O448        C449   1.294       .  A
C449        C929   1.502       .  S
O450       Zr453   2.439       .  S
O450        C452   1.286       .  A
O451       Zr480   2.494       .  S
O451        C452   1.300       .  A
C452        C607   1.504       .  S
Zr453       O459   2.383       .  S
Zr453       O460   2.330       .  S
Zr453       O483   2.353       .  S
Zr453       O485   2.387       .  S
Zr453       O454   2.434       .  S
Zr453       O455   2.428       .  S
O454        H497   0.990       .  S
O455        H496   0.990       .  S
O455        H500   0.990       .  S
Zr456       O460   2.379       .  S
Zr456       O459   2.347       .  S
Zr456       O484   2.328       .  S
Zr456       O486   2.400       .  S
Zr456       O457   2.438       .  S
Zr456       O458   2.435       .  S
O457        H498   0.990       .  S
O457        H501   0.990       .  S
O458        H491   0.990       .  S
O459       Zr479   2.384       .  S
O460       Zr480   2.384       .  S
O460        H487   0.965       .  S
O461       Zr473   2.371       .  S
O461        C463   1.273       .  A
O462       Zr480   2.474       .  S
O462        C463   1.301       .  A
O464       Zr476   2.455       .  S
O464        C466   1.296       .  A
O465       Zr479   2.422       .  S
O465        C466   1.285       .  A
O467       Zr476   2.501       .  S
O467        C469   1.296       .  A
O468       Zr480   2.460       .  S
O468        C469   1.293       .  A
C469        C660   1.521       .  S
O470       Zr473   2.424       .  S
O470        C472   1.283       .  A
O471       Zr479   2.512       .  S
O471        C472   1.302       .  A
C472        C716   1.527       .  S
Zr473       O481   2.375       .  S
Zr473       O482   2.359       .  S
Zr473       O485   2.346       .  S
Zr473       O483   2.390       .  S
Zr473       O474   2.439       .  S
Zr473       O475   2.433       .  S
O474        H494   0.990       .  S
O474        H499   0.990       .  S
O475        H495   0.990       .  S
Zr476       O482   2.377       .  S
Zr476       O481   2.341       .  S
Zr476       O486   2.374       .  S
Zr476       O484   2.397       .  S
Zr476       O477   2.435       .  S
Zr476       O478   2.438       .  S
O477        H493   0.990       .  S
O478        H492   0.991       .  S
O478        H502   0.990       .  S
Zr479       O482   2.392       .  S
Zr479       O484   2.406       .  S
Zr479       O485   2.395       .  S
Zr480       O481   2.392       .  S
Zr480       O483   2.385       .  S
Zr480       O486   2.410       .  S
O481        H489   0.966       .  S
O484        H488   0.965       .  S
O485        H490   0.966       .  S
C503        C523   1.628       .  S
C503        C775   1.619       .  S
C503        C786   1.569       .  S
C503        C887   1.617       .  S
C504        C509   1.607       .  S
C504        C747   1.594       .  S
C504        C803   1.573       .  S
C504        C859   1.576       .  S
C505        C506   1.408       .  A
C505        C510   1.426       .  A
C505        H512   1.084       .  S
C506        C507   1.409       .  A
C507        C508   1.409       .  A
C507        N514   1.441       .  S
C508        C509   1.425       .  A
C508        H513   1.077       .  S
C509        C510   1.436       .  A
C510        N511   1.432       .  S
N511        O515   1.262       .  A
N511        O516   1.263       .  A
N514        O517   1.263       .  A
N514        O518   1.263       .  A
C519        C520   1.397       .  A
C519        C524   1.416       .  A
C519        H526   1.085       .  S
C520        C521   1.425       .  A
C521        C522   1.439       .  A
C521        N528   1.444       .  S
C522        C523   1.429       .  A
C522        H527   1.071       .  S
C523        C524   1.447       .  A
C524        N525   1.426       .  S
N525        O529   1.262       .  A
N525        O530   1.260       .  A
N528        O531   1.263       .  A
N528        O532   1.263       .  A
C533        C534   1.404       .  A
C533        C538   1.416       .  A
C533        H540   1.084       .  S
C534        C535   1.417       .  A
C535        C536   1.426       .  A
C535        N542   1.431       .  S
C536        C537   1.422       .  A
C536        H541   1.079       .  S
C537        C538   1.436       .  A
C538        N539   1.432       .  S
N539        O543   1.262       .  A
N539        O544   1.262       .  A
N542        O545   1.260       .  A
N542        O546   1.261       .  A
C547        C548   1.403       .  A
C547        C552   1.418       .  A
C547        H554   1.084       .  S
C548        C549   1.413       .  A
C549        C550   1.403       .  A
C549        N556   1.439       .  S
C550        C551   1.419       .  A
C550        H555   1.083       .  S
C551        C552   1.437       .  A
C552        N553   1.433       .  S
N553        O557   1.262       .  A
N553        O558   1.261       .  A
N556        O559   1.262       .  A
N556        O560   1.263       .  A
C561        C562   1.410       .  A
C561        C566   1.405       .  A
C561        H568   1.084       .  S
C562        C563   1.409       .  A
C563        C564   1.414       .  A
C563        N570   1.433       .  S
C564        C565   1.427       .  A
C564        H569   1.080       .  S
C565        C566   1.437       .  A
C566        N567   1.447       .  S
N567        O571   1.263       .  A
N567        O572   1.262       .  A
N570        O573   1.261       .  A
N570        O574   1.262       .  A
C575        C576   1.439       .  A
C575       C2484   1.432       .  A
C575        H582   1.082       .  S
C576        C577   1.453       .  A
C577        C578   1.393       .  A
C577        N584   1.429       .  S
C578        C579   1.393       .  A
C578        H583   1.085       .  S
C579       C2179   1.516       .  S
C579       C2484   1.417       .  A
C580       C2479   1.432       .  A
C580       C2483   1.417       .  A
C580        N581   1.440   1_655  S
N581        O585   1.262       .  A
N581        O586   1.261       .  A
N584        O587   1.264       .  A
N584        O588   1.262       .  A
C589        C590   1.396       .  A
C589        C594   1.412       .  A
C589        H596   1.084       .  S
C590       C2106   1.502       .  S
C590       C2495   1.415       .  A
C591       C2494   1.415       .  A
C591       C2496   1.423       .  A
C591        N598   1.444   1_655  S
C592        C593   1.428       .  A
C592       C2495   1.423       .  A
C592       H2501   1.078       .  S
C593        C594   1.434       .  A
C594        N595   1.432       .  S
N595        O599   1.260       .  A
N595        O600   1.264       .  A
H597       C2496   1.078       .  S
N598        O601   1.262       .  A
N598        O602   1.263       .  A
C603        C604   1.428       .  A
C603        C608   1.421       .  A
C603        H610   1.067       .  S
C604        C605   1.465       .  A
C605        C606   1.416       .  A
C605        N612   1.437       .  S
C606        C607   1.389       .  A
C606        H611   1.085       .  S
C607        C608   1.411       .  A
C608        N609   1.441       .  S
N609        O613   1.262       .  A
N609        O614   1.262       .  A
N612        O615   1.263       .  A
N612        O616   1.259       .  A
C617        C618   1.420       .  A
C617        C622   1.399       .  A
C617        H624   1.073       .  S
C618        C619   1.428       .  A
C619        C620   1.413       .  A
C619        N626   1.431       .  S
C620        C621   1.407       .  A
C620        H625   1.084       .  S
C621        C622   1.411       .  A
C622        N623   1.452       .  S
N623        O627   1.263       .  A
N623        O628   1.261       .  A
N626        O629   1.260       .  A
N626        O630   1.261       .  A
C631        C632   1.415       .  A
C631        C636   1.404       .  A
C631        H638   1.075       .  S
C632        C633   1.441       .  A
C633       C1586   1.429       .  A
C633       N1592   1.428       .  S
C634       C1585   1.429       .  A
C634       C1587   1.407       .  A
C634        H639   1.084   1_565  S
C635       C1289   1.515       .  S
C635        C636   1.414       .  A
C635       C1586   1.407       .  A
C636        N637   1.434       .  S
N637        O641   1.263       .  A
N637        O642   1.260       .  A
N640       C1585   1.428   1_545  S
N640        O643   1.260       .  A
N640        O644   1.262       .  A
C645       C1598   1.407       .  A
C645       C1602   1.421       .  A
C645        H652   1.084   1_565  S
C646       C1171   1.498       .  S
C646        C647   1.406       .  A
C646       C1597   1.407       .  A
C647        C648   1.405       .  A
C647        N654   1.441       .  S
C648        C649   1.429       .  A
C648        H653   1.074       .  S
C649        C650   1.435       .  A
C650       C1597   1.421       .  A
C650       N1603   1.438       .  S
N651       C1602   1.438       .  S
N651        O655   1.261       .  A
N651       O1608   1.262       .  A
N654        O657   1.261       .  A
N654        O658   1.263       .  A
O656       N1603   1.262       .  A
C659        C660   1.405       .  A
C659        C664   1.419       .  A
C659        H666   1.084       .  S
C660        C661   1.418       .  A
C661        C662   1.422       .  A
C661        N668   1.439       .  S
C662        C663   1.426       .  A
C662        H667   1.076       .  S
C663        C664   1.439       .  A
C664        N665   1.436       .  S
N665        O669   1.261       .  A
N665        O670   1.263       .  A
N668        O671   1.261       .  A
N668        O672   1.263       .  A
C673        C674   1.428       .  A
C673        C678   1.430       .  A
C673        H680   1.079       .  S
C674        C675   1.436       .  A
C675        C676   1.396       .  A
C675        N682   1.427       .  S
C676        C677   1.393       .  A
C676        H681   1.086       .  S
C677        C678   1.419       .  A
C678        N679   1.442       .  S
N679        O683   1.259       .  A
N679        O684   1.260       .  A
N682        O685   1.262       .  A
N682        O686   1.263       .  A
C687        C688   1.401       .  A
C687        C692   1.412       .  A
C687        H694   1.084       .  S
C688        C689   1.400       .  A
C689        C690   1.389       .  A
C689        N696   1.441       .  S
C690        C691   1.422       .  A
C690        H695   1.081       .  S
C691        C692   1.433       .  A
C692        N693   1.433       .  S
N693        O697   1.260       .  A
N693        O698   1.260       .  A
N696        O699   1.263       .  A
N696        O700   1.261       .  A
C701        C702   1.390       .  A
C701        C706   1.407       .  A
C701        H708   1.085   1_556  S
C702        C703   1.422       .  A
C703        C704   1.418       .  A
C703        N710   1.443       .  S
C704        C705   1.415       .  A
C704        H709   1.083       .  S
C705        C706   1.453       .  A
C706        N707   1.437       .  S
N707        O711   1.263   1_556  A
N707        O712   1.261       .  A
N710        O713   1.262       .  A
N710        O714   1.263       .  A
C715        C716   1.406       .  A
C715        C720   1.428       .  A
C715        H722   1.083       .  S
C716        C717   1.423       .  A
C717        C718   1.405       .  A
C717        N724   1.433       .  S
C718        C719   1.414       .  A
C718        H723   1.079       .  S
C719        C720   1.441       .  A
C720        N721   1.432       .  S
N721        O725   1.261       .  A
N721        O726   1.262       .  A
N724        O727   1.261       .  A
N724        O728   1.263       .  A
C729        C730   1.403       .  A
C729        C734   1.398       .  A
C729        H736   1.085       .  S
C730        C731   1.413       .  A
C731        C732   1.421       .  A
C731        N738   1.432       .  S
C732        C733   1.419       .  A
C732        H737   1.076       .  S
C733        C734   1.434       .  A
C734        N735   1.433       .  S
N735        O739   1.262       .  A
N735        O740   1.262       .  A
N738        O741   1.259       .  A
N738        O742   1.262       .  A
C743        C744   1.405   1_554  A
C743        C748   1.413       .  A
C743        H750   1.082       .  S
C744       C1697   1.399       .  A
C745        C746   1.405   1_556  A
C745       C1696   1.399   1_545  A
C745        N752   1.440       .  S
C746        C747   1.432       .  A
C746        H751   1.069   1_554  S
C747       C1700   1.433   1_545  A
C748       C1699   1.433       .  A
C748        N749   1.435       .  S
N749        O753   1.261       .  A
N749        O754   1.261       .  A
N752        O755   1.262       .  A
N752        O756   1.262       .  A
C757        C758   1.424       .  A
C757        C762   1.414       .  A
C757        H764   1.079       .  S
C758        C759   1.444       .  A
C759        C760   1.411   1_554  A
C759        N766   1.418   1_554  S
C760        C761   1.389       .  A
C760        H765   1.085       .  S
C761        C762   1.411   1_556  A
C762        N763   1.435       .  S
N763        O767   1.260       .  A
N763        O768   1.256       .  A
N766        O769   1.261   1_556  A
N766        O770   1.263       .  A
C771        C776   1.411       .  A
C771       C1724   1.380   1_545  A
C771        H778   1.084       .  S
C772        C773   1.412       .  A
C772       C1723   1.380       .  A
C773        C774   1.418       .  A
C773        N780   1.424       .  S
C774       C1727   1.413       .  A
C774        H779   1.083       .  S
C775        C776   1.470       .  A
C775       C1726   1.413       .  A
C776        N777   1.440       .  S
N777        O781   1.264       .  A
N777        O782   1.258       .  A
N780        O783   1.262       .  A
N780        O784   1.262       .  A
C785        C786   1.418       .  A
C785        C790   1.403       .  A
C785        H792   1.078       .  S
C786        C787   1.443       .  A
C787        C788   1.411       .  A
C787        N794   1.443       .  S
C788        C789   1.398       .  A
C788        H793   1.084       .  S
C789        C790   1.410       .  A
C790        N791   1.435       .  S
N791        O795   1.262       .  A
N791        O796   1.262       .  A
N794        O797   1.264       .  A
N794        O798   1.259       .  A
C799        C800   1.392       .  A
C799        C804   1.401       .  A
C799        H806   1.084       .  S
C800       C2705   1.403       .  A
C801        C802   1.399       .  A
C801       C2704   1.403   1_455  A
C801        N808   1.432   1_554  S
C802        C803   1.415       .  A
C802        H807   1.084       .  S
C803       C2708   1.438       .  A
C804       C2707   1.438       .  A
C804        N805   1.434       .  S
N805        O809   1.261       .  A
N805        O810   1.263       .  A
N808        O811   1.262       .  A
N808        O812   1.261       .  A
C813        C814   1.391       .  A
C813        C818   1.401       .  A
C813        H820   1.084   1_554  S
C814        C815   1.406       .  A
C815        C816   1.406       .  A
C815        N822   1.441       .  S
C816        C817   1.425       .  A
C816        H821   1.076       .  S
C817        C818   1.437       .  A
C818        N819   1.444       .  S
N819        O823   1.264       .  A
N819        O824   1.258       .  A
N822        O825   1.262       .  A
N822        O826   1.263       .  A
C827        C832   1.383       .  A
C827       C2732   1.395   1_455  A
C827        H834   1.083       .  S
C828        C829   1.420       .  A
C828       C2731   1.395       .  A
C829        C830   1.425       .  A
C829        N836   1.436       .  S
C830       C2735   1.426       .  A
C830        H835   1.082       .  S
C831        C832   1.443       .  A
C831       C2734   1.426       .  A
C832        N833   1.432       .  S
N833        O837   1.264       .  A
N833        O838   1.262       .  A
N836        O839   1.262       .  A
N836        O840   1.262       .  A
C841        C842   1.427       .  A
C841        C846   1.423       .  A
C841        H848   1.084       .  S
C842        C843   1.432       .  A
C843        C844   1.406       .  A
C843        N850   1.435       .  S
C844        C845   1.409       .  A
C844        H849   1.083       .  S
C845        C846   1.419       .  A
C846        N847   1.433       .  S
N847        O851   1.262       .  A
N847        O852   1.262       .  A
N850        O853   1.263       .  A
N850        O854   1.261       .  A
C855        C856   1.405       .  A
C855       C2764   1.416       .  A
C855       H2766   1.083       .  S
C856       C1809   1.420       .  A
C857        C858   1.391       .  A
C857       C1808   1.420   1_545  A
C857        N864   1.432       .  S
C858       C2763   1.410       .  A
C858        H863   1.075       .  S
C859       C2762   1.410       .  A
C859       C1812   1.440       .  A
C860       C2759   1.416   1_455  A
C860       C1811   1.440       .  A
C860        N861   1.437       .  S
N861        O865   1.262       .  A
N861        O866   1.261   1_455  A
H862       C2759   1.083       .  S
N864        O867   1.262       .  A
N864        O868   1.262       .  A
C869        C870   1.406       .  A
C869       C2778   1.425       .  A
C869        H876   1.083       .  S
C870        C871   1.422       .  A
C871        C872   1.399       .  A
C871        N878   1.433       .  S
C872       C2777   1.415       .  A
C872        H877   1.078       .  S
C873        C874   1.442       .  A
C873       C2776   1.415       .  A
C874       C2773   1.425   1_455  A
C874        N875   1.431       .  S
N875        O879   1.262       .  A
N875        O880   1.261   1_455  A
N878        O881   1.263       .  A
N878        O882   1.262       .  A
C883        C884   1.406       .  A
C883       C1840   1.424       .  A
C883        H890   1.083       .  S
C884       C1837   1.414       .  A
C885        C886   1.406       .  A
C885       C1836   1.414   1_545  A
C885       N1844   1.430       .  S
C886        C887   1.426       .  A
C886        H891   1.075       .  S
C887        C888   1.441       .  A
C888       C1835   1.424   1_545  A
C888        N889   1.428       .  S
N889        O893   1.261   1_545  A
N889        O894   1.263       .  A
N892       C1837   1.430       .  S
N892        O895   1.262       .  A
N892       O1848   1.262       .  A
O896       N1844   1.262       .  A
C897        C898   1.409       .  A
C897        C902   1.399       .  A
C897        H904   1.080       .  S
C898        C899   1.444       .  A
C899       C1852   1.418       .  A
C899       N1858   1.424       .  S
C900       C1851   1.418       .  A
C900       C1853   1.394       .  A
C900        H905   1.084   1_565  S
C901       C1269   1.504   1_556  S
C901        C902   1.423       .  A
C901       C1852   1.394       .  A
C902        N903   1.439       .  S
N903        O907   1.263       .  A
N903        O908   1.262   1_556  A
N906       C1851   1.424       .  S
N906        O909   1.261   1_565  A
N906        O910   1.262       .  A
C911        C912   1.414       .  A
C911       C1868   1.409       .  A
C911       H1870   1.080       .  S
C912        C913   1.429       .  A
C913        C914   1.392       .  A
C913        N920   1.432       .  S
C914       C1867   1.397       .  A
C914       H2823   1.085       .  S
C915       C2103   1.468   1_565  S
C915        C916   1.412   1_565  A
C915       C1866   1.397       .  A
C916       C1863   1.409   1_545  A
C916        N917   1.442       .  S
N917        O921   1.262       .  A
N917        O922   1.260       .  A
H918       C1863   1.080       .  S
H919       C2818   1.085       .  S
N920        O923   1.262       .  A
N920       O2828   1.261       .  A
O924       N2824   1.261       .  A
C925        C926   1.421       .  A
C925        C930   1.415       .  A
C925        H932   1.078       .  S
C926        C927   1.431       .  A
C927        C928   1.413       .  A
C927        N934   1.431       .  S
C928        C929   1.403       .  A
C928        H933   1.084       .  S
C929        C930   1.417       .  A
C930        N931   1.442       .  S
N931        O935   1.263       .  A
N931        O936   1.259       .  A
N934        O937   1.262       .  A
N934        O938   1.262       .  A
C939        C940   1.419       .  A
C939        C944   1.394       .  A
C939        H946   1.079       .  S
C940        C941   1.447       .  A
C941       C2846   1.403       .  A
C941        N948   1.438       .  S
C942       C2845   1.403       .  A
C942       C2847   1.392       .  A
C942        H947   1.085   1_655  S
C943       C2159   1.462       .  S
C943        C944   1.401       .  A
C943       C2846   1.392       .  A
C944        N945   1.441       .  S
N945        O949   1.263       .  A
N945        O950   1.262       .  A
N948        O952   1.263       .  A
N948       O2855   1.260       .  A
O951       N2852   1.260       .  A
C953       C1850   1.590       .  S
C953       C1864   1.552       .  S
C953       C1878   1.595       .  S
C953       C1892   1.572       .  S
O954       Zr966   2.321       .  S
O954        C956   1.263       .  A
O955       Zr992   2.479       .  S
O955        C956   1.303       .  A
O957       Zr969   2.409       .  S
O957        C959   1.284       .  A
O958       Zr993   2.385       .  S
O958        C959   1.278       .  A
O960       Zr969   2.472       .  S
O960        C962   1.294       .  A
O961       Zr992   2.474       .  S
O961        C962   1.297       .  A
C962       C1836   1.524       .  S
O963       Zr966   2.408       .  S
O963        C965   1.279       .  A
O964       Zr993   2.466       .  S
O964        C965   1.293       .  A
C965       C1808   1.504       .  S
Zr966       O972   2.380       .  S
Zr966       O973   2.326       .  S
Zr966       O996   2.317       .  S
Zr966       O998   2.381       .  S
Zr966      O2872   2.434       .  S
O967       H1010   0.990       .  S
O968      Zr2870   2.434   1_455  S
O968       H1009   0.990       .  S
O968       H1013   0.990       .  S
Zr969       O973   2.373       .  S
Zr969       O972   2.354       .  S
Zr969       O997   2.341       .  S
Zr969       O999   2.382       .  S
Zr969       O971   2.431       .  S
O970       H1011   0.990       .  S
O970       H1014   0.990       .  S
O971       H1004   0.990       .  S
O972       Zr992   2.386       .  S
O973       Zr993   2.391       .  S
O973       H1000   0.966       .  S
O974       Zr986   2.364       .  S
O974        C976   1.270       .  A
O975       Zr993   2.410       .  S
O975        C976   1.289       .  A
C976       C3120   1.421       .  S
O977       Zr989   2.370       .  S
O977        C979   1.275       .  A
O978       Zr992   2.449       .  S
O978        C979   1.297       .  A
C979       C1398   1.445       .  S
O980       Zr989   2.431       .  S
O980        C982   1.286       .  A
O981       Zr993   2.488       .  S
O981        C982   1.296       .  A
C982       C1797   1.523       .  S
O983       Zr986   2.431       .  S
O983        C985   1.283       .  A
O984       Zr992   2.494       .  S
O984        C985   1.299       .  A
C985       C1822   1.522       .  S
Zr986       O994   2.384       .  S
Zr986       O995   2.339       .  S
Zr986       O998   2.354       .  S
Zr986       O996   2.372       .  S
Zr986       O987   2.437       .  S
Zr986      O2892   2.431       .  S
O987       H1007   0.990       .  S
O987       H1012   0.989       .  S
O988      Zr2890   2.431   1_455  S
O988       H1008   0.991       .  S
Zr989       O995   2.392       .  S
Zr989       O994   2.353       .  S
Zr989       O999   2.349       .  S
Zr989       O997   2.376       .  S
Zr989       O990   2.435       .  S
Zr989       O991   2.435       .  S
O990       H1006   0.990       .  S
O991       H1005   0.990       .  S
O991       H1015   0.990       .  S
Zr992       O995   2.398       .  S
Zr992       O997   2.396       .  S
Zr992       O998   2.381       .  S
Zr993       O994   2.393       .  S
Zr993       O996   2.363       .  S
Zr993       O999   2.386       .  S
O994       H1002   0.966       .  S
O997       H1001   0.965       .  S
O998       H1003   0.965       .  S
O1016     Zr1028   2.332       .  S
O1016      C1018   1.268       .  A
O1017     Zr1054   2.412       .  S
O1017      C1018   1.286       .  A
C1018      C3140   1.414   1_556  S
O1019     Zr1031   2.350       .  S
O1019      C1021   1.272       .  A
O1020     Zr1055   2.407       .  S
O1020      C1021   1.286       .  A
C1021      C1395   1.423       .  S
O1022     Zr1031   2.428       .  S
O1022      C1024   1.284       .  A
O1023     Zr1054   2.412       .  S
O1023      C1024   1.282       .  A
C1024      C1766   1.464   1_556  S
O1025     Zr1028   2.419       .  S
O1025      C1027   1.285       .  A
O1026     Zr1055   2.440       .  S
O1026      C1027   1.283       .  A
C1027      C1780   1.509       .  S
Zr1028     O1034   2.385       .  S
Zr1028     O1035   2.327       .  S
Zr1028     O1058   2.331       .  S
Zr1028     O1060   2.379       .  S
Zr1028     O1029   2.436       .  S
Zr1028     O2934   2.439       .  S
O1029      H1072   0.990       .  S
O1030     Zr2932   2.439   1_455  S
O1030      H1071   0.990       .  S
O1030      H1075   0.990       .  S
Zr1031     O1035   2.393       .  S
Zr1031     O1034   2.340       .  S
Zr1031     O1059   2.347       .  S
Zr1031     O1061   2.380       .  S
Zr1031     O1032   2.434       .  S
Zr1031     O1033   2.435       .  S
O1032      H1073   0.988       .  S
O1032      H1076   0.990       .  S
O1033      H1066   0.990       .  S
O1034     Zr1054   2.380       .  S
O1035     Zr1055   2.387       .  S
O1035      H1062   0.966       .  S
O1036     Zr1048   2.349       .  S
O1036      C1038   1.272       .  A
O1037     Zr1055   2.409       .  S
O1037      C1038   1.285       .  A
C1038      C3049   1.427       .  S
O1039     Zr1051   2.420       .  S
O1039      C1041   1.286       .  A
O1040     Zr1054   2.404       .  S
O1040      C1041   1.282       .  A
C1041      C1275   1.444   1_556  S
O1042     Zr1051   2.487       .  S
O1042      C1044   1.296       .  A
O1043     Zr1055   2.389       .  S
O1043      C1044   1.277       .  A
C1044      C1741   1.485       .  S
O1045     Zr1048   2.444       .  S
O1045      C1047   1.287       .  A
O1046     Zr1054   2.396       .  S
O1046      C1047   1.279       .  A
C1047      C1752   1.466   1_556  S
Zr1048     O1056   2.393       .  S
Zr1048     O1057   2.330       .  S
Zr1048     O1060   2.321       .  S
Zr1048     O1058   2.380       .  S
Zr1048     O1049   2.425       .  S
Zr1048     O2954   2.435       .  S
O1049      H1069   0.988       .  S
O1049      H1074   0.989       .  S
O1050     Zr2952   2.435   1_455  S
O1050      H1070   0.990       .  S
Zr1051     O1057   2.385       .  S
Zr1051     O1056   2.360       .  S
Zr1051     O1061   2.336       .  S
Zr1051     O1059   2.384       .  S
Zr1051     O1052   2.434       .  S
Zr1051     O1053   2.432       .  S
O1052      H1068   0.990       .  S
O1053      H1067   0.990       .  S
O1053      H1077   0.990       .  S
Zr1054     O1057   2.379       .  S
Zr1054     O1059   2.384       .  S
Zr1054     O1060   2.373       .  S
Zr1055     O1056   2.395       .  S
Zr1055     O1058   2.362       .  S
Zr1055     O1061   2.378       .  S
O1056      H1064   0.966       .  S
O1059      H1063   0.966       .  S
O1060      H1065   0.963       .  S
O1078     Zr1090   2.327       .  S
O1078      C1080   1.261       .  A
O1079     Zr1116   2.494       .  S
O1079      C1080   1.307       .  A
O1081     Zr1093   2.359       .  S
O1081      C1083   1.273       .  A
O1082     Zr1117   2.442       .  S
O1082      C1083   1.289       .  A
C1083      C1213   1.433       .  S
O1084     Zr1093   2.425       .  S
O1084      C1086   1.284       .  A
O1085     Zr1116   2.490       .  S
O1085      C1086   1.300       .  A
C1086      C1713   1.496       .  S
O1087     Zr1090   2.394       .  S
O1087      C1089   1.276       .  A
O1088     Zr1117   2.487       .  S
O1088      C1089   1.298       .  A
C1089      C1696   1.481       .  S
Zr1090     O1096   2.370       .  S
Zr1090     O1097   2.345       .  S
Zr1090     O1120   2.345       .  S
Zr1090     O1122   2.382       .  S
Zr1090     O1091   2.437       .  S
O1091      H1134   0.991   1_556  S
O1092      H1133   0.989       .  S
O1092      H1137   0.990       .  S
Zr1093     O1097   2.367       .  S
Zr1093     O1096   2.325       .  S
Zr1093     O1121   2.348       .  S
Zr1093     O1123   2.383       .  S
Zr1093     O1094   2.437   1_556  S
Zr1093     O1095   2.427       .  S
O1094      H1135   0.989       .  S
O1094      H1138   0.990       .  S
O1095      H1128   0.990       .  S
O1096     Zr1116   2.374       .  S
O1097     Zr1117   2.394       .  S
O1097      H1124   0.965       .  S
O1098     Zr1110   2.388       .  S
O1098      C1100   1.277       .  A
O1099     Zr1117   2.427       .  S
O1099      C1100   1.287       .  A
O1101     Zr1113   2.341       .  S
O1101      C1103   1.268       .  A
O1102     Zr1116   2.486       .  S
O1102      C1103   1.297       .  A
C1103      C1418   1.453       .  S
O1104     Zr1113   2.380       .  S
O1104      C1106   1.275       .  A
O1105     Zr1117   2.514       .  S
O1105      C1106   1.303       .  A
C1106      C1682   1.498       .  S
O1107     Zr1110   2.419       .  S
O1107      C1109   1.282       .  A
O1108     Zr1116   2.502       .  S
O1108      C1109   1.304       .  A
C1109      C1724   1.499       .  S
Zr1110     O1118   2.369       .  S
Zr1110     O1119   2.342       .  S
Zr1110     O1122   2.357       .  S
Zr1110     O1120   2.379       .  S
Zr1110     O1111   2.436       .  S
O1111      H1131   0.990       .  S
O1111      H1136   0.990   1_565  S
O1112      H1132   0.990       .  S
Zr1113     O1119   2.354       .  S
Zr1113     O1118   2.348       .  S
Zr1113     O1123   2.338       .  S
Zr1113     O1121   2.359       .  S
Zr1113     O1114   2.434       .  S
Zr1113     O1115   2.429       .  S
O1114      H1130   0.991       .  S
O1115      H1129   0.990       .  S
O1115      H1139   0.990       .  S
Zr1116     O1119   2.377       .  S
Zr1116     O1121   2.402       .  S
Zr1116     O1122   2.414       .  S
Zr1117     O1118   2.391       .  S
Zr1117     O1120   2.410       .  S
Zr1117     O1123   2.403       .  S
O1118      H1126   0.965       .  S
O1121      H1125   0.966       .  S
O1122      H1127   0.966   1_565  S
C1140      C1626   1.605       .  S
C1140      C1643   1.563       .  S
C1140      C1657   1.594       .  S
C1140      C1671   1.602       .  S
C1141      C1570   1.582       .  S
C1141      C1584   1.603       .  S
C1141      C1601   1.597       .  S
C1141      C1615   1.606       .  S
C1142      C1517   1.568       .  S
C1142      C1528   1.638       .  S
C1142      C1545   1.620       .  S
C1142      C1556   1.629       .  S
O1143     Zr3059   2.374       .  S
O1143      C3049   1.274       .  A
O1144     Zr1181   2.395       .  S
O1144      C1145   1.286   1_455  A
C1145      O3047   1.274       .  A
C1145      C2942   1.427       .  S
O1146     Zr3062   2.312       .  S
O1146      C1148   1.262       .  A
O1147     Zr1182   2.480       .  S
O1147      C3052   1.302   1_455  A
C1148      O3051   1.302       .  A
O1149     Zr3062   2.387       .  S
O1149      C3055   1.275       .  A
O1150     Zr1181   2.454       .  S
O1150      C1151   1.291   1_455  A
C1151      O3053   1.275       .  A
C1151      C3771   1.468       .  S
O1152     Zr3059   2.449       .  S
O1152      C3058   1.288       .  A
O1153     Zr1182   2.472       .  S
O1153      C1154   1.295       .  A
C1154      O3056   1.288       .  A
C1154      C3446   1.502   1_455  S
Zr1155     O3047   2.374   1_455  S
Zr1155     O3056   2.449       .  S
Zr1155     O1161   2.383       .  S
Zr1155     O1162   2.349       .  S
Zr1155     O1185   2.345       .  S
Zr1155     O1187   2.387       .  S
Zr1155     O3060   2.434   1_455  S
Zr1155     O1157   2.431       .  S
O1156     Zr3059   2.434       .  S
O1156      H1199   0.990       .  S
O1157      H1198   0.990       .  S
O1157      H3106   0.989       .  S
Zr1158     O3050   2.312   1_455  S
Zr1158     O3053   2.387   1_455  S
Zr1158     O1162   2.375       .  S
Zr1158     O1161   2.333       .  S
Zr1158     O1186   2.340       .  S
Zr1158     O1188   2.379       .  S
Zr1158     O3063   2.438   1_455  S
O1159     Zr3062   2.438       .  S
O1159      H1200   0.990       .  S
O1159      H1203   0.990       .  S
O1160      H1193   0.989       .  S
O1161     Zr1181   2.371       .  S
O1162     Zr1182   2.374       .  S
O1162      H3093   0.966   1_455  S
O1163     Zr1175   2.374       .  S
O1163      C1165   1.275       .  A
O1164     Zr1182   2.431       .  S
O1164      C1165   1.293       .  A
C1165      C1339   1.441       .  S
O1166     Zr1178   2.427       .  S
O1166      C1168   1.288       .  A
O1167     Zr1181   2.391       .  S
O1167      C1168   1.278       .  A
O1169     Zr1178   2.475       .  S
O1169      C1171   1.293       .  A
O1170     Zr1182   2.453       .  S
O1170      C1171   1.293       .  A
O1172     Zr1175   2.425       .  S
O1172      C1174   1.284       .  A
O1173     Zr1181   2.467       .  S
O1173      C1174   1.292       .  A
C1174      C1629   1.499       .  S
Zr1175     O1183   2.368       .  S
Zr1175     O1184   2.340       .  S
Zr1175     O1187   2.354       .  S
Zr1175     O1185   2.396       .  S
Zr1175     O1176   2.439       .  S
Zr1175     O1177   2.434       .  S
O1176      H1196   0.990       .  S
O1176      H1201   0.990       .  S
O1177      H1197   0.989       .  S
Zr1178     O1184   2.377       .  S
Zr1178     O1183   2.348       .  S
Zr1178     O1188   2.356       .  S
Zr1178     O1186   2.379       .  S
Zr1178     O1179   2.432       .  S
O1179      H1195   0.990       .  S
O1180      H1194   0.990       .  S
O1180      H1204   0.990       .  S
Zr1181     O1184   2.383       .  S
Zr1181     O1186   2.387       .  S
Zr1181     O1187   2.387       .  S
Zr1182     O1183   2.393       .  S
Zr1182     O1185   2.395       .  S
Zr1182     O1188   2.381       .  S
O1183      H1191   0.965       .  S
O1187      H1192   0.966       .  S
H1189      O3066   0.966       .  S
H1202      O3061   0.989       .  S
O1205     Zr3121   2.432       .  S
O1205      C3111   1.283   1_554  A
O1206     Zr1243   2.406   1_556  S
O1206      C1207   1.280       .  A
C1207      O3109   1.283   1_456  A
C1207      C3799   1.462   1_455  S
O1208     Zr1220   2.464       .  S
O1208      C1210   1.291       .  A
O1209     Zr1244   2.416       .  S
O1209      C1210   1.284       .  A
C1210      C1573   1.477       .  S
O1211     Zr1220   2.433       .  S
O1211      C1213   1.289   1_554  A
O1212     Zr1243   2.384   1_556  S
O1212      C1213   1.275       .  A
O1214     Zr3121   2.322       .  S
O1214      C3120   1.265       .  A
O1215     Zr1244   2.423       .  S
O1215      C1216   1.288       .  A
C1216      O3118   1.265   1_455  A
C1216      C2880   1.421   1_455  S
Zr1217     O3109   2.432   1_455  S
Zr1217     O3118   2.322   1_455  S
Zr1217     O1223   2.322       .  S
Zr1217     O1224   2.380       .  S
Zr1217     O1247   2.382       .  S
Zr1217     O1249   2.331       .  S
Zr1217     O1218   2.431       .  S
Zr1217     O3123   2.440   1_455  S
O1218      H1261   0.990       .  S
O1219     Zr3121   2.440       .  S
O1219      H1260   0.990       .  S
O1219      H1264   0.990       .  S
Zr1220     O1224   2.364       .  S
Zr1220     O1223   2.372       .  S
Zr1220     O1248   2.363       .  S
Zr1220     O1250   2.345       .  S
Zr1220     O1221   2.435       .  S
Zr1220     O1222   2.434       .  S
O1221      H1262   0.989       .  S
O1221      H1265   0.989       .  S
O1222      H1255   0.990       .  S
O1223     Zr1243   2.379       .  S
O1224     Zr1244   2.400       .  S
O1224      H1251   0.966       .  S
O1225     Zr3141   2.418       .  S
O1225      C3131   1.285       .  A
O1226     Zr1244   2.478       .  S
O1226      C1227   1.292       .  A
C1227      O3129   1.285       .  A
C1227      C3435   1.516   1_455  S
O1228     Zr1240   2.432       .  S
O1228      C1230   1.286   1_554  A
O1229     Zr1243   2.419   1_556  S
O1229      C1230   1.283       .  A
C1230      C1640   1.464       .  S
O1231     Zr1240   2.364       .  S
O1231      C1233   1.273       .  A
O1232     Zr1244   2.411       .  S
O1232      C1233   1.288       .  A
C1233      C1342   1.428       .  S
O1234     Zr3141   2.338       .  S
O1234      C3140   1.268       .  A
O1235     Zr1243   2.405   1_556  S
O1235      C1236   1.287   1_456  A
C1236      O3138   1.268       .  A
C1236      C2922   1.414   1_554  S
Zr1237     O3129   2.418       .  S
Zr1237     O3138   2.338   1_455  S
Zr1237     O1245   2.332       .  S
Zr1237     O1246   2.384       .  S
Zr1237     O1249   2.389       .  S
Zr1237     O1247   2.337       .  S
Zr1237     O1238   2.437       .  S
Zr1237     O3143   2.432   1_455  S
O1238      H1258   0.990       .  S
O1238      H3167   0.990       .  S
O1239     Zr3141   2.432       .  S
O1239      H1259   0.990       .  S
Zr1240     O1246   2.352       .  S
Zr1240     O1245   2.389       .  S
Zr1240     O1250   2.377       .  S
Zr1240     O1248   2.348       .  S
Zr1240     O1241   2.436       .  S
Zr1240     O1242   2.440       .  S
O1241      H1257   0.990       .  S
O1242      H1256   0.990       .  S
O1242      H1266   0.990       .  S
Zr1243     O1246   2.382       .  S
Zr1243     O1248   2.386       .  S
Zr1243     O1249   2.367       .  S
Zr1244     O1245   2.388       .  S
Zr1244     O1247   2.361       .  S
Zr1244     O1250   2.389       .  S
O1245      H1253   0.966       .  S
O1248      H1252   0.966       .  S
O1249      H3158   0.964   1_455  S
H1254      O3153   0.964       .  S
H1263      O3142   0.990       .  S
O1268     Zr1305   2.524       .  S
O1268      C1269   1.303       .  A
O1270     Zr1282   2.446   1_556  S
O1270      C1272   1.287   1_556  A
O1271     Zr1306   2.491       .  S
O1271      C1272   1.302       .  A
C1272      C1654   1.496   1_554  S
O1273     Zr1282   2.415       .  S
O1273      C1275   1.276       .  A
O1274     Zr1305   2.414       .  S
O1274      C1275   1.279       .  A
O1277     Zr1306   2.500       .  S
O1277      C1278   1.307   1_554  A
Zr1279     O1285   2.337       .  S
Zr1279     O1286   2.364       .  S
Zr1279     O1309   2.362       .  S
Zr1279     O1311   2.335       .  S
Zr1279     O1280   2.436   1_554  S
O1280      H1323   0.991       .  S
O1281      H1322   0.988       .  S
O1281      H1326   0.989       .  S
Zr1282     O1286   2.347       .  S
Zr1282     O1285   2.373       .  S
Zr1282     O1310   2.370       .  S
Zr1282     O1312   2.370       .  S
Zr1282     O1283   2.436   1_554  S
Zr1282     O1284   2.433       .  S
O1283      H1324   0.990       .  S
O1283      H1327   0.990       .  S
O1284      H1317   0.990       .  S
O1285     Zr1305   2.387       .  S
O1286     Zr1306   2.390       .  S
O1286      H1313   0.960       .  S
O1288     Zr1306   2.537       .  S
O1288      C1289   1.309       .  A
O1290     Zr1302   2.391       .  S
O1290      C1292   1.279       .  A
O1291     Zr1305   2.496       .  S
O1291      C1292   1.299       .  A
C1292      C1514   1.507       .  S
O1293     Zr1302   2.378       .  S
O1293      C1295   1.275       .  A
O1294     Zr1306   2.475       .  S
O1294      C1295   1.296       .  A
C1295      C1359   1.453       .  S
O1297     Zr1305   2.403       .  S
O1297      C1298   1.282       .  A
Zr1299     O1307   2.339       .  S
Zr1299     O1308   2.365       .  S
Zr1299     O1311   2.367       .  S
Zr1299     O1309   2.366       .  S
Zr1299     O1300   2.438       .  S
O1300      H1320   0.990       .  S
O1301      H1321   0.989       .  S
Zr1302     O1308   2.355       .  S
Zr1302     O1307   2.358       .  S
Zr1302     O1312   2.364       .  S
Zr1302     O1310   2.352       .  S
Zr1302     O1303   2.434       .  S
Zr1302     O1304   2.430       .  S
O1303      H1319   0.990       .  S
O1304      H1318   0.990       .  S
O1304      H1328   0.990       .  S
Zr1305     O1308   2.394       .  S
Zr1305     O1310   2.420       .  S
Zr1305     O1311   2.399       .  S
Zr1306     O1307   2.391       .  S
Zr1306     O1309   2.401       .  S
Zr1306     O1312   2.416       .  S
O1307      H1315   0.964       .  S
O1310      H1314   0.966       .  S
C1329      C1503   1.572       .  S
C1329      C1710   1.609       .  S
C1329      C1769   1.601       .  S
C1329      C1794   1.612       .  S
C1330      C1489   1.606       .  S
C1330      C1685   1.573       .  S
C1330      C1783   1.589       .  S
C1330      C1825   1.602       .  S
O1331     Zr1343   2.444       .  S
O1331      C1333   1.286       .  A
O1332     Zr1369   2.514       .  S
O1332      C1333   1.304       .  A
C1333      C1486   1.522       .  S
O1334     Zr1346   2.475       .  S
O1334      C1336   1.292       .  A
O1335     Zr1370   2.463       .  S
O1335      C1336   1.291       .  A
C1336      C1458   1.508       .  S
O1337     Zr1346   2.367       .  S
O1337      C1339   1.273       .  A
O1338     Zr1369   2.437       .  S
O1338      C1339   1.293       .  A
O1340     Zr1343   2.359       .  S
O1340      C1342   1.273       .  A
O1341     Zr1370   2.416       .  S
O1341      C1342   1.289       .  A
Zr1343     O1349   2.336       .  S
Zr1343     O1350   2.390       .  S
Zr1343     O1373   2.390       .  S
Zr1343     O1375   2.352       .  S
Zr1343     O1344   2.432       .  S
Zr1343     O1345   2.433       .  S
O1344      H1387   0.990       .  S
O1345      H1386   0.990       .  S
O1345      H1390   0.990       .  S
Zr1346     O1350   2.341       .  S
Zr1346     O1349   2.388       .  S
Zr1346     O1374   2.398       .  S
Zr1346     O1376   2.340       .  S
Zr1346     O1347   2.429       .  S
Zr1346     O1348   2.424       .  S
O1347      H1388   0.989       .  S
O1347      H1391   0.990       .  S
O1348      H1381   0.990       .  S
O1349     Zr1369   2.381       .  S
O1350     Zr1370   2.383       .  S
O1350      H1377   0.965       .  S
O1351     Zr1363   2.432       .  S
O1351      C1353   1.285       .  A
O1352     Zr1370   2.470       .  S
O1352      C1353   1.293       .  A
C1353      C1500   1.496       .  S
O1354     Zr1366   2.518       .  S
O1354      C1356   1.303       .  A
O1355     Zr1369   2.475       .  S
O1355      C1356   1.296       .  A
C1356      C1472   1.529       .  S
O1357     Zr1366   2.463       .  S
O1357      C1359   1.295       .  A
O1358     Zr1370   2.404       .  S
O1358      C1359   1.281       .  A
O1360     Zr1363   2.365       .  S
O1360      C1362   1.273       .  A
O1361     Zr1369   2.473       .  S
O1361      C1362   1.300       .  A
C1362      C1415   1.457       .  S
Zr1363     O1371   2.353       .  S
Zr1363     O1372   2.379       .  S
Zr1363     O1375   2.390       .  S
Zr1363     O1373   2.350       .  S
Zr1363     O1364   2.436       .  S
Zr1363     O1365   2.432       .  S
O1364      H1384   0.989       .  S
O1364      H1389   0.990       .  S
O1365      H1385   0.990       .  S
Zr1366     O1372   2.358       .  S
Zr1366     O1371   2.388       .  S
Zr1366     O1376   2.388       .  S
Zr1366     O1374   2.363       .  S
Zr1366     O1367   2.434       .  S
Zr1366     O1368   2.433       .  S
O1367      H1383   0.990       .  S
O1368      H1382   0.990       .  S
O1368      H1392   0.990       .  S
Zr1369     O1372   2.386       .  S
Zr1369     O1374   2.416       .  S
Zr1369     O1375   2.384       .  S
Zr1370     O1371   2.397       .  S
Zr1370     O1373   2.387       .  S
Zr1370     O1376   2.394       .  S
O1371      H1379   0.966       .  S
O1374      H1378   0.966       .  S
O1375      H1380   0.966       .  S
O1393     Zr1405   2.354       .  S
O1393      C1395   1.271       .  A
O1394     Zr1431   2.404       .  S
O1394      C1395   1.287       .  A
O1396     Zr1408   2.368       .  S
O1396      C1398   1.274       .  A
O1397     Zr1432   2.449       .  S
O1397      C1398   1.295       .  A
O1399     Zr1408   2.460       .  S
O1399      C1401   1.290       .  A
O1400     Zr1431   2.467       .  S
O1400      C1401   1.294       .  A
C1401      C1881   1.502       .  S
O1402     Zr1405   2.439       .  S
O1402      C1404   1.286       .  A
O1403     Zr1432   2.494       .  S
O1403      C1404   1.300       .  A
C1404      C1559   1.504       .  S
Zr1405     O1411   2.383       .  S
Zr1405     O1412   2.330       .  S
Zr1405     O1435   2.353       .  S
Zr1405     O1437   2.387       .  S
Zr1405     O1406   2.434       .  S
Zr1405     O1407   2.428       .  S
O1406      H1449   0.990       .  S
O1407      H1448   0.990       .  S
O1407      H1452   0.990       .  S
Zr1408     O1412   2.379       .  S
Zr1408     O1411   2.347       .  S
Zr1408     O1436   2.328       .  S
Zr1408     O1438   2.400       .  S
Zr1408     O1409   2.438       .  S
Zr1408     O1410   2.435       .  S
O1409      H1450   0.990       .  S
O1409      H1453   0.990       .  S
O1410      H1443   0.990       .  S
O1411     Zr1431   2.384       .  S
O1412     Zr1432   2.384       .  S
O1412      H1439   0.965       .  S
O1413     Zr1425   2.371       .  S
O1413      C1415   1.273       .  A
O1414     Zr1432   2.474       .  S
O1414      C1415   1.301       .  A
O1416     Zr1428   2.455       .  S
O1416      C1418   1.296       .  A
O1417     Zr1431   2.422       .  S
O1417      C1418   1.285       .  A
O1419     Zr1428   2.501       .  S
O1419      C1421   1.296       .  A
O1420     Zr1432   2.460       .  S
O1420      C1421   1.293       .  A
C1421      C1612   1.521       .  S
O1422     Zr1425   2.424       .  S
O1422      C1424   1.283       .  A
O1423     Zr1431   2.512       .  S
O1423      C1424   1.302       .  A
C1424      C1668   1.527       .  S
Zr1425     O1433   2.375       .  S
Zr1425     O1434   2.359       .  S
Zr1425     O1437   2.346       .  S
Zr1425     O1435   2.389       .  S
Zr1425     O1426   2.439       .  S
Zr1425     O1427   2.433       .  S
O1426      H1446   0.990       .  S
O1426      H1451   0.990       .  S
O1427      H1447   0.990       .  S
Zr1428     O1434   2.377       .  S
Zr1428     O1433   2.341       .  S
Zr1428     O1438   2.374       .  S
Zr1428     O1436   2.397       .  S
Zr1428     O1429   2.435       .  S
Zr1428     O1430   2.438       .  S
O1429      H1445   0.990       .  S
O1430      H1444   0.991       .  S
O1430      H1454   0.990       .  S
Zr1431     O1434   2.392       .  S
Zr1431     O1436   2.406       .  S
Zr1431     O1437   2.395       .  S
Zr1432     O1433   2.392       .  S
Zr1432     O1435   2.385       .  S
Zr1432     O1438   2.410       .  S
O1433      H1441   0.966       .  S
O1436      H1440   0.965       .  S
O1437      H1442   0.966       .  S
C1455      C1475   1.628       .  S
C1455      C1727   1.619       .  S
C1455      C1738   1.569       .  S
C1455      C1839   1.617       .  S
C1456      C1461   1.607       .  S
C1456      C1699   1.594       .  S
C1456      C1755   1.573       .  S
C1456      C1811   1.576       .  S
C1457      C1458   1.408       .  A
C1457      C1462   1.426       .  A
C1457      H1464   1.084       .  S
C1458      C1459   1.409       .  A
C1459      C1460   1.409       .  A
C1459      N1466   1.441       .  S
C1460      C1461   1.425       .  A
C1460      H1465   1.077       .  S
C1461      C1462   1.436       .  A
C1462      N1463   1.432       .  S
N1463      O1467   1.262       .  A
N1463      O1468   1.263       .  A
N1466      O1469   1.263       .  A
N1466      O1470   1.263       .  A
C1471      C1472   1.397       .  A
C1471      C1476   1.416       .  A
C1471      H1478   1.085       .  S
C1472      C1473   1.425       .  A
C1473      C1474   1.439       .  A
C1473      N1480   1.444       .  S
C1474      C1475   1.429       .  A
C1474      H1479   1.071       .  S
C1475      C1476   1.447       .  A
C1476      N1477   1.426       .  S
N1477      O1481   1.262       .  A
N1477      O1482   1.260       .  A
N1480      O1483   1.263       .  A
N1480      O1484   1.263       .  A
C1485      C1486   1.404       .  A
C1485      C1490   1.416       .  A
C1485      H1492   1.084       .  S
C1486      C1487   1.417       .  A
C1487      C1488   1.426       .  A
C1487      N1494   1.431       .  S
C1488      C1489   1.422       .  A
C1488      H1493   1.079       .  S
C1489      C1490   1.436       .  A
C1490      N1491   1.432       .  S
N1491      O1495   1.262       .  A
N1491      O1496   1.262       .  A
N1494      O1497   1.260       .  A
N1494      O1498   1.261       .  A
C1499      C1500   1.403       .  A
C1499      C1504   1.418       .  A
C1499      H1506   1.084       .  S
C1500      C1501   1.413       .  A
C1501      C1502   1.403       .  A
C1501      N1508   1.439       .  S
C1502      C1503   1.419       .  A
C1502      H1507   1.083       .  S
C1503      C1504   1.437       .  A
C1504      N1505   1.433       .  S
N1505      O1509   1.262       .  A
N1505      O1510   1.261       .  A
N1508      O1511   1.262       .  A
N1508      O1512   1.263       .  A
C1513      C1514   1.410       .  A
C1513      C1518   1.405       .  A
C1513      H1520   1.084       .  S
C1514      C1515   1.409       .  A
C1515      C1516   1.414       .  A
C1515      N1522   1.433       .  S
C1516      C1517   1.427       .  A
C1516      H1521   1.080       .  S
C1517      C1518   1.437       .  A
C1518      N1519   1.447       .  S
N1519      O1523   1.263       .  A
N1519      O1524   1.262       .  A
N1522      O1525   1.261       .  A
N1522      O1526   1.262       .  A
C1527      C1528   1.439       .  A
C1527      C3436   1.432       .  A
C1527      H1534   1.082       .  S
C1528      C1529   1.453       .  A
C1529      C1530   1.393       .  A
C1529      N1536   1.429       .  S
C1530      C1531   1.393       .  A
C1530      H1535   1.085       .  S
C1531      C3131   1.516       .  S
C1531      C3436   1.417       .  A
C1532      C3431   1.432       .  A
C1532      C3435   1.417       .  A
C1532      N1533   1.440   1_655  S
N1533      O1537   1.262       .  A
N1533      O1538   1.261       .  A
N1536      O1539   1.264       .  A
N1536      O1540   1.262       .  A
C1541      C1542   1.396       .  A
C1541      C1546   1.412       .  A
C1541      H1548   1.084       .  S
C1542      C3058   1.502       .  S
C1542      C3447   1.415       .  A
C1543      C3446   1.415       .  A
C1543      C3448   1.423       .  A
C1543      N1550   1.444   1_655  S
C1544      C3447   1.423       .  A
C1544      C1545   1.428       .  A
C1544      H3453   1.078       .  S
C1545      C1546   1.434       .  A
C1546      N1547   1.432       .  S
N1547      O1551   1.260       .  A
N1547      O1552   1.264       .  A
H1549      C3448   1.078       .  S
N1550      O1553   1.262       .  A
N1550      O1554   1.263       .  A
C1555      C1556   1.428       .  A
C1555      C1560   1.421       .  A
C1555      H1562   1.067       .  S
C1556      C1557   1.465       .  A
C1557      C1558   1.416       .  A
C1557      N1564   1.437       .  S
C1558      C1559   1.389       .  A
C1558      H1563   1.085       .  S
C1559      C1560   1.411       .  A
C1560      N1561   1.441       .  S
N1561      O1565   1.262       .  A
N1561      O1566   1.262       .  A
N1564      O1567   1.263       .  A
N1564      O1568   1.259       .  A
C1569      C1570   1.420       .  A
C1569      C1574   1.399       .  A
C1569      H1576   1.073       .  S
C1570      C1571   1.428       .  A
C1571      C1572   1.413       .  A
C1571      N1578   1.431       .  S
C1572      C1573   1.407       .  A
C1572      H1577   1.084       .  S
C1573      C1574   1.411       .  A
C1574      N1575   1.452       .  S
N1575      O1579   1.263       .  A
N1575      O1580   1.261       .  A
N1578      O1581   1.260       .  A
N1578      O1582   1.261       .  A
C1583      C1584   1.415       .  A
C1583      C1588   1.404       .  A
C1583      H1590   1.075       .  S
C1584      C1585   1.441       .  A
C1586      H1591   1.084       .  S
C1587      C1588   1.414       .  A
C1588      N1589   1.434       .  S
N1589      O1593   1.263       .  A
N1589      O1594   1.260       .  A
N1592      O1595   1.260       .  A
N1592      O1596   1.262       .  A
C1597      H1604   1.084       .  S
C1598      C1599   1.406       .  A
C1599      C1600   1.405       .  A
C1599      N1606   1.441       .  S
C1600      C1601   1.429       .  A
C1600      H1605   1.074       .  S
C1601      C1602   1.434       .  A
N1603      O1607   1.261       .  A
N1606      O1609   1.261       .  A
N1606      O1610   1.263       .  A
C1611      C1612   1.405       .  A
C1611      C1616   1.419       .  A
C1611      H1618   1.084       .  S
C1612      C1613   1.418       .  A
C1613      C1614   1.422       .  A
C1613      N1620   1.439       .  S
C1614      C1615   1.426       .  A
C1614      H1619   1.076       .  S
C1615      C1616   1.439       .  A
C1616      N1617   1.436       .  S
N1617      O1621   1.261       .  A
N1617      O1622   1.263       .  A
N1620      O1623   1.261       .  A
N1620      O1624   1.263       .  A
C1625      C1626   1.428       .  A
C1625      C1630   1.430       .  A
C1625      H1632   1.079       .  S
C1626      C1627   1.436       .  A
C1627      C1628   1.396       .  A
C1627      N1634   1.427       .  S
C1628      C1629   1.393       .  A
C1628      H1633   1.086       .  S
C1629      C1630   1.419       .  A
C1630      N1631   1.442       .  S
N1631      O1635   1.259       .  A
N1631      O1636   1.260       .  A
N1634      O1637   1.262       .  A
N1634      O1638   1.263       .  A
C1639      C1640   1.401       .  A
C1639      C1644   1.412       .  A
C1639      H1646   1.084       .  S
C1640      C1641   1.400       .  A
C1641      C1642   1.389       .  A
C1641      N1648   1.441       .  S
C1642      C1643   1.422       .  A
C1642      H1647   1.081       .  S
C1643      C1644   1.433       .  A
C1644      N1645   1.433       .  S
N1645      O1649   1.260       .  A
N1645      O1650   1.260       .  A
N1648      O1651   1.263       .  A
N1648      O1652   1.261       .  A
C1653      C1654   1.390       .  A
C1653      C1658   1.407       .  A
C1653      H1660   1.085   1_556  S
C1654      C1655   1.422       .  A
C1655      C1656   1.418       .  A
C1655      N1662   1.443       .  S
C1656      C1657   1.415       .  A
C1656      H1661   1.083       .  S
C1657      C1658   1.453       .  A
C1658      N1659   1.437       .  S
N1659      O1663   1.263   1_556  A
N1659      O1664   1.261       .  A
N1662      O1665   1.262       .  A
N1662      O1666   1.263       .  A
C1667      C1668   1.406       .  A
C1667      C1672   1.428       .  A
C1667      H1674   1.083       .  S
C1668      C1669   1.423       .  A
C1669      C1670   1.405       .  A
C1669      N1676   1.433       .  S
C1670      C1671   1.414       .  A
C1670      H1675   1.079       .  S
C1671      C1672   1.441       .  A
C1672      N1673   1.432       .  S
N1673      O1677   1.261       .  A
N1673      O1678   1.262       .  A
N1676      O1679   1.261       .  A
N1676      O1680   1.263       .  A
C1681      C1682   1.403       .  A
C1681      C1686   1.398       .  A
C1681      H1688   1.085       .  S
C1682      C1683   1.413       .  A
C1683      C1684   1.421       .  A
C1683      N1690   1.432       .  S
C1684      C1685   1.419       .  A
C1684      H1689   1.076       .  S
C1685      C1686   1.434       .  A
C1686      N1687   1.433       .  S
N1687      O1691   1.262       .  A
N1687      O1692   1.262       .  A
N1690      O1693   1.259       .  A
N1690      O1694   1.262       .  A
C1695      C1696   1.405   1_554  A
C1695      C1700   1.413       .  A
C1695      H1702   1.082       .  S
C1697      C1698   1.405   1_556  A
C1697      N1704   1.440       .  S
C1698      C1699   1.432       .  A
C1698      H1703   1.069   1_554  S
C1700      N1701   1.435       .  S
N1701      O1705   1.261       .  A
N1701      O1706   1.261       .  A
N1704      O1707   1.262       .  A
N1704      O1708   1.262       .  A
C1709      C1710   1.424       .  A
C1709      C1714   1.414       .  A
C1709      H1716   1.079       .  S
C1710      C1711   1.444       .  A
C1711      C1712   1.411   1_554  A
C1711      N1718   1.418   1_554  S
C1712      C1713   1.389       .  A
C1712      H1717   1.085       .  S
C1713      C1714   1.411   1_556  A
C1714      N1715   1.435       .  S
N1715      O1719   1.260       .  A
N1715      O1720   1.256       .  A
N1718      O1721   1.261   1_556  A
N1718      O1722   1.263       .  A
C1723      C1728   1.411       .  A
C1723      H1730   1.084       .  S
C1724      C1725   1.412       .  A
C1725      C1726   1.418   1_565  A
C1725      N1732   1.424       .  S
C1726      H1731   1.083   1_545  S
C1727      C1728   1.470       .  A
C1728      N1729   1.440       .  S
N1729      O1733   1.264       .  A
N1729      O1734   1.258       .  A
N1732      O1735   1.262       .  A
N1732      O1736   1.262       .  A
C1737      C1738   1.418       .  A
C1737      C1742   1.403       .  A
C1737      H1744   1.078       .  S
C1738      C1739   1.443       .  A
C1739      C1740   1.411       .  A
C1739      N1746   1.443       .  S
C1740      C1741   1.398       .  A
C1740      H1745   1.084       .  S
C1741      C1742   1.410       .  A
C1742      N1743   1.435       .  S
N1743      O1747   1.262       .  A
N1743      O1748   1.262       .  A
N1746      O1749   1.264       .  A
N1746      O1750   1.259       .  A
C1751      C1752   1.392       .  A
C1751      C1756   1.401       .  A
C1751      H1758   1.084       .  S
C1752      C3657   1.403       .  A
C1753      C3656   1.403   1_455  A
C1753      C1754   1.399       .  A
C1753      N1760   1.432   1_554  S
C1754      C1755   1.415       .  A
C1754      H1759   1.084       .  S
C1755      C3660   1.438       .  A
C1756      C3659   1.438       .  A
C1756      N1757   1.434       .  S
N1757      O1761   1.261       .  A
N1757      O1762   1.263       .  A
N1760      O1763   1.262       .  A
N1760      O1764   1.261       .  A
C1765      C1766   1.391       .  A
C1765      C1770   1.401       .  A
C1765      H1772   1.084   1_554  S
C1766      C1767   1.406       .  A
C1767      C1768   1.406       .  A
C1767      N1774   1.441       .  S
C1768      C1769   1.425       .  A
C1768      H1773   1.076       .  S
C1769      C1770   1.437       .  A
C1770      N1771   1.444       .  S
N1771      O1775   1.264       .  A
N1771      O1776   1.258       .  A
N1774      O1777   1.262       .  A
N1774      O1778   1.263       .  A
C1779      C3684   1.395   1_455  A
C1779      C1784   1.383       .  A
C1779      H1786   1.083       .  S
C1780      C3683   1.395       .  A
C1780      C1781   1.420       .  A
C1781      C1782   1.425       .  A
C1781      N1788   1.436       .  S
C1782      C3687   1.426       .  A
C1782      H1787   1.082       .  S
C1783      C3686   1.426       .  A
C1783      C1784   1.443       .  A
C1784      N1785   1.432       .  S
N1785      O1789   1.264       .  A
N1785      O1790   1.262       .  A
N1788      O1791   1.262       .  A
N1788      O1792   1.262       .  A
C1793      C1794   1.427       .  A
C1793      C1798   1.423       .  A
C1793      H1800   1.084       .  S
C1794      C1795   1.432       .  A
C1795      C1796   1.406       .  A
C1795      N1802   1.435       .  S
C1796      C1797   1.409       .  A
C1796      H1801   1.083       .  S
C1797      C1798   1.419       .  A
C1798      N1799   1.433       .  S
N1799      O1803   1.262       .  A
N1799      O1804   1.262       .  A
N1802      O1805   1.263       .  A
N1802      O1806   1.261       .  A
C1807      C1808   1.405       .  A
C1807      C3716   1.416   1_565  A
C1807      H3718   1.083       .  S
C1809      C1810   1.391       .  A
C1809      N1816   1.432       .  S
C1810      C3715   1.410       .  A
C1810      H1815   1.075       .  S
C1811      C3714   1.410       .  A
C1812      C3711   1.416   1_445  A
C1812      N1813   1.437   1_545  S
N1813      O1817   1.262       .  A
N1813      O1818   1.261   1_465  A
H1814      C3711   1.083       .  S
N1816      O1819   1.262       .  A
N1816      O1820   1.262       .  A
C1821      C1822   1.406       .  A
C1821      C3730   1.425       .  A
C1821      H1828   1.083       .  S
C1822      C1823   1.422       .  A
C1823      C1824   1.399       .  A
C1823      N1830   1.433       .  S
C1824      C3729   1.415       .  A
C1824      H1829   1.078       .  S
C1825      C3728   1.415       .  A
C1825      C1826   1.442       .  A
C1826      C3725   1.425   1_455  A
C1826      N1827   1.431       .  S
N1827      O1831   1.262       .  A
N1827      O1832   1.261   1_455  A
N1830      O1833   1.263       .  A
N1830      O1834   1.262       .  A
C1835      C1836   1.406       .  A
C1835      H1842   1.083       .  S
C1837      C1838   1.406       .  A
C1838      C1839   1.426       .  A
C1838      H1843   1.075       .  S
C1839      C1840   1.441       .  A
C1840      N1841   1.428       .  S
N1841      O1845   1.261       .  A
N1841      O1846   1.263       .  A
N1844      O1847   1.262       .  A
C1849      C1850   1.409       .  A
C1849      C1854   1.399       .  A
C1849      H1856   1.080       .  S
C1850      C1851   1.444       .  A
C1852      H1857   1.084       .  S
C1853      C1854   1.423       .  A
C1854      N1855   1.439       .  S
N1855      O1859   1.263       .  A
N1855      O1860   1.262   1_556  A
N1858      O1861   1.261       .  A
N1858      O1862   1.262       .  A
C1863      C1864   1.414       .  A
C1864      C1865   1.429       .  A
C1865      C1866   1.392       .  A
C1865      N1872   1.432       .  S
C1866      H3775   1.085       .  S
C1867      C3055   1.468       .  S
C1867      C1868   1.412       .  A
C1868      N1869   1.442       .  S
N1869      O1873   1.262       .  A
N1869      O1874   1.260       .  A
H1871      C3770   1.085       .  S
N1872      O1875   1.262       .  A
N1872      O3780   1.261       .  A
O1876      N3776   1.261       .  A
C1877      C1878   1.421       .  A
C1877      C1882   1.415       .  A
C1877      H1884   1.078       .  S
C1878      C1879   1.431       .  A
C1879      C1880   1.413       .  A
C1879      N1886   1.431       .  S
C1880      C1881   1.403       .  A
C1880      H1885   1.084       .  S
C1881      C1882   1.417       .  A
C1882      N1883   1.442       .  S
N1883      O1887   1.263       .  A
N1883      O1888   1.259       .  A
N1886      O1889   1.262       .  A
N1886      O1890   1.262       .  A
C1891      C1892   1.419       .  A
C1891      C1896   1.394       .  A
C1891      H1898   1.079       .  S
C1892      C1893   1.447       .  A
C1893      C3798   1.403       .  A
C1893      N1900   1.438       .  S
C1894      C3797   1.403       .  A
C1894      C3799   1.392       .  A
C1894      H1899   1.085   1_655  S
C1895      C3111   1.462       .  S
C1895      C3798   1.392       .  A
C1895      C1896   1.401       .  A
C1896      N1897   1.441       .  S
N1897      O1901   1.263       .  A
N1897      O1902   1.262       .  A
N1900      O3807   1.260       .  A
N1900      O1904   1.263       .  A
O1903      N3804   1.260       .  A
C1905      C2802   1.590       .  S
C1905      C2816   1.552       .  S
C1905      C2830   1.595       .  S
C1905      C2844   1.572       .  S
O1906     Zr1918   2.321       .  S
O1906      C1908   1.263       .  A
O1907     Zr1944   2.479       .  S
O1907      C1908   1.303       .  A
C1908      C3052   1.438       .  S
O1909     Zr1921   2.409       .  S
O1909      C1911   1.284       .  A
O1910     Zr1945   2.385       .  S
O1910      C1911   1.278       .  A
C1911      C3202   1.418       .  S
O1912     Zr1921   2.472       .  S
O1912      C1914   1.294       .  A
O1913     Zr1944   2.474       .  S
O1913      C1914   1.297       .  A
C1914      C2788   1.524       .  S
O1915     Zr1918   2.408       .  S
O1915      C1917   1.279       .  A
O1916     Zr1945   2.466       .  S
O1916      C1917   1.293       .  A
C1917      C2760   1.504   1_655  S
Zr1918     O1924   2.380       .  S
Zr1918     O1925   2.326       .  S
Zr1918     O1948   2.317       .  S
Zr1918     O1950   2.381       .  S
Zr1918     O2871   2.436       .  S
O1919     Zr2870   2.436   1_545  S
O1919      H1962   0.990       .  S
O1920      H1961   0.990       .  S
O1920      H1965   0.990       .  S
Zr1921     O1925   2.373       .  S
Zr1921     O1924   2.354       .  S
Zr1921     O1949   2.341       .  S
Zr1921     O1951   2.382       .  S
Zr1921     O2874   2.430       .  S
Zr1921     O1923   2.431       .  S
O1922     Zr2873   2.430   1_545  S
O1922      H1963   0.990       .  S
O1922      H1966   0.990       .  S
O1923      H1956   0.990       .  S
O1924     Zr1944   2.386       .  S
O1925     Zr1945   2.391       .  S
O1925      H1952   0.966       .  S
O1926     Zr1938   2.364       .  S
O1926      C1928   1.270       .  A
O1927     Zr1945   2.410       .  S
O1927      C1928   1.289       .  A
O1929     Zr1941   2.370       .  S
O1929      C1931   1.275       .  A
O1930     Zr1944   2.449       .  S
O1930      C1931   1.297       .  A
C1931      C2350   1.445       .  S
O1932     Zr1941   2.431       .  S
O1932      C1934   1.286       .  A
O1933     Zr1945   2.488       .  S
O1933      C1934   1.296       .  A
C1934      C2749   1.523       .  S
O1935     Zr1938   2.431       .  S
O1935      C1937   1.283       .  A
O1936     Zr1944   2.494       .  S
O1936      C1937   1.299       .  A
C1937      C2774   1.522       .  S
Zr1938     O1946   2.384       .  S
Zr1938     O1947   2.339       .  S
Zr1938     O1950   2.354       .  S
Zr1938     O1948   2.372       .  S
Zr1938     O1939   2.437       .  S
O1939      H1959   0.990       .  S
O1939      H1964   0.989       .  S
O1940      H1960   0.991       .  S
Zr1941     O1947   2.392       .  S
Zr1941     O1946   2.353       .  S
Zr1941     O1951   2.348       .  S
Zr1941     O1949   2.376       .  S
Zr1941     O1942   2.435       .  S
Zr1941     O1943   2.435       .  S
O1942      H1958   0.990       .  S
O1943      H1957   0.990       .  S
O1943      H1967   0.990       .  S
Zr1944     O1947   2.398       .  S
Zr1944     O1949   2.396       .  S
Zr1944     O1950   2.381       .  S
Zr1945     O1946   2.393       .  S
Zr1945     O1948   2.363       .  S
Zr1945     O1951   2.386       .  S
O1946      H1954   0.966       .  S
O1949      H1953   0.965       .  S
O1950      H1955   0.965       .  S
O1968     Zr1980   2.332       .  S
O1968      C1970   1.268       .  A
O1969     Zr2006   2.412       .  S
O1969      C1970   1.286       .  A
O1971     Zr1983   2.350       .  S
O1971      C1973   1.272       .  A
O1972     Zr2007   2.407       .  S
O1972      C1973   1.286       .  A
C1973      C2347   1.423       .  S
O1974     Zr1983   2.428       .  S
O1974      C1976   1.284       .  A
O1975     Zr2006   2.412       .  S
O1975      C1976   1.282       .  A
C1976      C2718   1.464   1_556  S
O1977     Zr1980   2.419       .  S
O1977      C1979   1.285       .  A
O1978     Zr2007   2.440       .  S
O1978      C1979   1.283       .  A
C1979      C2732   1.509       .  S
Zr1980     O1986   2.385       .  S
Zr1980     O1987   2.327       .  S
Zr1980     O2010   2.331       .  S
Zr1980     O2012   2.379       .  S
Zr1980     O1981   2.436       .  S
O1981      H2024   0.990       .  S
O1982      H2023   0.990       .  S
O1982      H2027   0.990       .  S
Zr1983     O1987   2.393       .  S
Zr1983     O1986   2.340       .  S
Zr1983     O2011   2.347       .  S
Zr1983     O2013   2.380       .  S
Zr1983     O1984   2.434       .  S
Zr1983     O1985   2.435       .  S
O1984      H2025   0.988       .  S
O1984      H2028   0.990       .  S
O1985      H2018   0.990       .  S
O1986     Zr2006   2.380       .  S
O1987     Zr2007   2.387       .  S
O1987      H2014   0.966       .  S
O1988     Zr2000   2.349       .  S
O1988      C1990   1.272       .  A
O1989     Zr2007   2.409       .  S
O1989      C1990   1.285       .  A
O1991     Zr2003   2.420       .  S
O1991      C1993   1.286       .  A
O1992     Zr2006   2.404       .  S
O1992      C1993   1.282       .  A
C1993      C2227   1.444   1_556  S
O1994     Zr2003   2.487       .  S
O1994      C1996   1.296       .  A
O1995     Zr2007   2.389       .  S
O1995      C1996   1.277       .  A
C1996      C2693   1.485       .  S
O1997     Zr2000   2.444       .  S
O1997      C1999   1.287       .  A
O1998     Zr2006   2.396       .  S
O1998      C1999   1.279       .  A
C1999      C2704   1.466   1_556  S
Zr2000     O2008   2.393       .  S
Zr2000     O2009   2.330       .  S
Zr2000     O2012   2.321       .  S
Zr2000     O2010   2.380       .  S
Zr2000     O2001   2.425       .  S
O2001      H2021   0.988       .  S
O2001      H2026   0.989       .  S
O2002      H2022   0.990       .  S
Zr2003     O2009   2.385       .  S
Zr2003     O2008   2.360       .  S
Zr2003     O2013   2.336       .  S
Zr2003     O2011   2.384       .  S
Zr2003     O2004   2.434       .  S
Zr2003     O2005   2.432       .  S
O2004      H2020   0.990       .  S
O2005      H2019   0.990       .  S
O2005      H2029   0.990       .  S
Zr2006     O2009   2.379       .  S
Zr2006     O2011   2.384       .  S
Zr2006     O2012   2.373       .  S
Zr2007     O2008   2.395       .  S
Zr2007     O2010   2.362       .  S
Zr2007     O2013   2.378       .  S
O2008      H2016   0.966       .  S
O2011      H2015   0.966       .  S
O2012      H2017   0.963       .  S
O2030     Zr2042   2.327       .  S
O2030      C2032   1.261       .  A
O2031     Zr2068   2.494       .  S
O2031      C2032   1.307       .  A
C2032      C3182   1.444       .  S
O2033     Zr2045   2.359       .  S
O2033      C2035   1.273       .  A
O2034     Zr2069   2.442       .  S
O2034      C2035   1.289       .  A
C2035      C2165   1.433       .  S
O2036     Zr2045   2.425       .  S
O2036      C2038   1.284       .  A
O2037     Zr2068   2.490       .  S
O2037      C2038   1.300       .  A
C2038      C2665   1.496       .  S
O2039     Zr2042   2.394       .  S
O2039      C2041   1.276       .  A
O2040     Zr2069   2.487       .  S
O2040      C2041   1.298       .  A
C2041      C2648   1.481       .  S
Zr2042     O2048   2.370       .  S
Zr2042     O2049   2.345       .  S
Zr2042     O2072   2.345       .  S
Zr2042     O2074   2.382       .  S
Zr2042     O2043   2.437       .  S
Zr2042     O2996   2.431       .  S
O2043      H2086   0.991   1_556  S
O2044     Zr2994   2.431   1_545  S
O2044      H2085   0.989       .  S
O2044      H2089   0.990       .  S
Zr2045     O2049   2.367       .  S
Zr2045     O2048   2.325       .  S
Zr2045     O2073   2.348       .  S
Zr2045     O2075   2.383       .  S
Zr2045     O2046   2.437   1_556  S
Zr2045     O2047   2.427       .  S
O2046      H2087   0.989       .  S
O2046      H2090   0.990       .  S
O2047      H2080   0.990       .  S
O2048     Zr2068   2.374       .  S
O2049     Zr2069   2.394       .  S
O2049      H2076   0.965       .  S
O2050     Zr2062   2.388       .  S
O2050      C2052   1.277       .  A
O2051     Zr2069   2.427       .  S
O2051      C2052   1.287       .  A
C2052      C3072   1.435       .  S
O2053     Zr2065   2.341       .  S
O2053      C2055   1.268       .  A
O2054     Zr2068   2.486       .  S
O2054      C2055   1.297       .  A
C2055      C2370   1.453       .  S
O2056     Zr2065   2.380       .  S
O2056      C2058   1.275       .  A
O2057     Zr2069   2.514       .  S
O2057      C2058   1.303       .  A
C2058      C2634   1.498       .  S
O2059     Zr2062   2.419       .  S
O2059      C2061   1.282       .  A
O2060     Zr2068   2.502       .  S
O2060      C2061   1.304       .  A
C2061      C2676   1.499       .  S
Zr2062     O2070   2.369       .  S
Zr2062     O2071   2.342       .  S
Zr2062     O2074   2.357       .  S
Zr2062     O2072   2.379       .  S
Zr2062     O2063   2.436       .  S
Zr2062     O3016   2.435       .  S
O2063      H2083   0.990       .  S
O2063      H2088   0.990       .  S
O2064     Zr3014   2.435   1_545  S
O2064      H2084   0.990       .  S
Zr2065     O2071   2.354       .  S
Zr2065     O2070   2.348       .  S
Zr2065     O2075   2.338       .  S
Zr2065     O2073   2.359       .  S
Zr2065     O2066   2.434       .  S
Zr2065     O2067   2.429       .  S
O2066      H2082   0.991       .  S
O2067      H2081   0.990       .  S
O2067      H2091   0.990       .  S
Zr2068     O2071   2.377       .  S
Zr2068     O2073   2.402       .  S
Zr2068     O2074   2.414       .  S
Zr2069     O2070   2.391       .  S
Zr2069     O2072   2.410       .  S
Zr2069     O2075   2.403       .  S
O2070      H2078   0.965       .  S
O2073      H2077   0.966       .  S
O2074      H2079   0.966       .  S
C2092      C2578   1.605       .  S
C2092      C2595   1.563       .  S
C2092      C2609   1.594       .  S
C2092      C2623   1.602       .  S
C2093      C2522   1.582       .  S
C2093      C2536   1.603       .  S
C2093      C2553   1.597       .  S
C2093      C2567   1.606       .  S
C2094      C2469   1.568       .  S
C2094      C2480   1.638       .  S
C2094      C2497   1.620       .  S
C2094      C2508   1.629       .  S
O2096     Zr2133   2.395       .  S
O2096      C2097   1.286       .  A
O2098      C2100   1.262       .  A
O2099     Zr2134   2.480       .  S
C2100      C2860   1.438       .  S
O2102     Zr2133   2.454       .  S
O2102      C2103   1.291       .  A
O2105     Zr2134   2.472       .  S
O2105      C2106   1.295       .  A
Zr2107     O2113   2.383       .  S
Zr2107     O2114   2.349       .  S
Zr2107     O2137   2.345       .  S
Zr2107     O2139   2.387       .  S
Zr2107     O2109   2.431       .  S
O2108      H2151   0.990       .  S
O2109      H2150   0.990       .  S
Zr2110     O2114   2.375       .  S
Zr2110     O2113   2.333       .  S
Zr2110     O2138   2.340       .  S
Zr2110     O2140   2.379       .  S
Zr2110     O3064   2.438   1_545  S
O2111      H2152   0.990       .  S
O2111      H2155   0.990   1_545  S
O2112     Zr3062   2.438       .  S
O2112      H2145   0.989       .  S
O2113     Zr2133   2.371       .  S
O2114     Zr2134   2.374       .  S
O2115     Zr2127   2.374       .  S
O2115      C2117   1.275       .  A
O2116     Zr2134   2.431       .  S
O2116      C2117   1.293       .  A
C2117      C2291   1.441       .  S
O2118     Zr2130   2.427       .  S
O2118      C2120   1.288       .  A
O2119     Zr2133   2.391       .  S
O2119      C2120   1.278   1_545  A
C2120      C3004   1.435       .  S
O2121     Zr2130   2.475       .  S
O2121      C2123   1.293       .  A
O2122     Zr2134   2.453       .  S
O2122      C2123   1.293   1_545  A
C2123      C3502   1.498       .  S
O2124     Zr2127   2.425       .  S
O2124      C2126   1.284       .  A
O2125     Zr2133   2.467       .  S
O2125      C2126   1.292       .  A
C2126      C2581   1.499       .  S
Zr2127     O2135   2.368       .  S
Zr2127     O2136   2.340       .  S
Zr2127     O2139   2.354       .  S
Zr2127     O2137   2.396       .  S
Zr2127     O2128   2.439       .  S
Zr2127     O2129   2.434       .  S
O2128      H2148   0.990       .  S
O2128      H2153   0.990       .  S
O2129      H2149   0.989       .  S
Zr2130     O2136   2.377   1_565  S
Zr2130     O2135   2.348   1_565  S
Zr2130     O2140   2.356   1_565  S
Zr2130     O2138   2.379   1_565  S
Zr2130     O2131   2.432       .  S
Zr2130     O3084   2.433       .  S
O2131      H2147   0.990   1_565  S
O2132     Zr3082   2.433       .  S
O2132      H2146   0.990       .  S
O2132      H2156   0.990       .  S
Zr2133     O2136   2.383       .  S
Zr2133     O2138   2.387       .  S
Zr2133     O2139   2.387       .  S
Zr2134     O2135   2.393       .  S
Zr2134     O2137   2.395       .  S
Zr2134     O2140   2.381       .  S
O2135      H2143   0.965       .  S
O2138      H3094   0.966   1_545  S
O2139      H2144   0.966       .  S
H2142      O3090   0.966       .  S
O2158     Zr2195   2.406   1_556  S
O2158      C2159   1.280       .  A
O2160     Zr2172   2.464       .  S
O2160      C2162   1.291       .  A
O2161     Zr2196   2.416       .  S
O2161      C2162   1.284       .  A
C2162      C2525   1.477       .  S
O2163     Zr2172   2.433       .  S
O2163      C2165   1.289   1_554  A
O2164     Zr2195   2.384   1_556  S
O2164      C2165   1.275       .  A
O2167     Zr2196   2.423       .  S
O2167      C2168   1.288       .  A
Zr2169     O2175   2.322       .  S
Zr2169     O2176   2.380       .  S
Zr2169     O2199   2.382       .  S
Zr2169     O2201   2.331       .  S
Zr2169     O2170   2.431       .  S
O2170      H2213   0.990       .  S
O2171      H2212   0.990       .  S
O2171      H2216   0.990       .  S
Zr2172     O2176   2.364       .  S
Zr2172     O2175   2.372       .  S
Zr2172     O2200   2.363       .  S
Zr2172     O2202   2.345       .  S
Zr2172     O2173   2.435       .  S
Zr2172     O2174   2.434       .  S
O2173      H2214   0.989       .  S
O2173      H2217   0.989       .  S
O2174      H2207   0.990       .  S
O2175     Zr2195   2.379       .  S
O2176     Zr2196   2.400       .  S
O2176      H2203   0.966       .  S
O2178     Zr2196   2.478       .  S
O2178      C2179   1.292       .  A
O2180     Zr2192   2.432       .  S
O2180      C2182   1.286   1_554  A
O2181     Zr2195   2.419   1_556  S
O2181      C2182   1.283       .  A
C2182      C2592   1.464       .  S
O2183     Zr2192   2.364       .  S
O2183      C2185   1.273       .  A
O2184     Zr2196   2.411       .  S
O2184      C2185   1.288       .  A
C2185      C2294   1.428       .  S
O2187     Zr2195   2.405   1_556  S
O2187      C2188   1.287   1_556  A
Zr2189     O2197   2.332       .  S
Zr2189     O2198   2.384       .  S
Zr2189     O2201   2.389       .  S
Zr2189     O2199   2.337       .  S
Zr2189     O2190   2.437       .  S
O2190      H2210   0.990       .  S
O2191      H2211   0.990       .  S
Zr2192     O2198   2.352       .  S
Zr2192     O2197   2.389       .  S
Zr2192     O2202   2.377       .  S
Zr2192     O2200   2.348       .  S
Zr2192     O2193   2.436       .  S
Zr2192     O2194   2.440       .  S
O2193      H2209   0.990       .  S
O2194      H2208   0.990       .  S
O2194      H2218   0.990       .  S
Zr2195     O2198   2.382       .  S
Zr2195     O2200   2.386       .  S
Zr2195     O2201   2.367       .  S
Zr2196     O2197   2.388       .  S
Zr2196     O2199   2.361       .  S
Zr2196     O2202   2.389       .  S
O2197      H2205   0.966       .  S
O2200      H2204   0.966       .  S
O2219     Zr3183   2.352       .  S
O2219      C3173   1.268       .  A
O2220     Zr2257   2.524       .  S
O2220      C2221   1.303   1_545  A
C2221      O3171   1.268       .  A
C2221      C3757   1.504   1_554  S
O2222     Zr2234   2.446   1_556  S
O2222      C2224   1.287   1_556  A
O2223     Zr2258   2.491       .  S
O2223      C2224   1.302       .  A
C2224      C2606   1.496   1_554  S
O2225     Zr2234   2.415       .  S
O2225      C2227   1.276       .  A
O2226     Zr2257   2.414       .  S
O2226      C2227   1.279       .  A
O2228     Zr3183   2.320   1_556  S
O2228      C3182   1.262       .  A
O2229     Zr2258   2.500       .  S
O2229      C2230   1.307   1_544  A
C2230      O3180   1.262       .  A
C2230      C2984   1.444       .  S
Zr2231     O3171   2.352   1_545  S
Zr2231     O3180   2.320   1_544  S
Zr2231     O2237   2.337       .  S
Zr2231     O2238   2.364       .  S
Zr2231     O2261   2.362   1_545  S
Zr2231     O2263   2.335       .  S
Zr2231     O2232   2.436   1_544  S
Zr2231     O3185   2.432   1_545  S
O2232      H2275   0.991   1_565  S
O2233     Zr3183   2.432       .  S
O2233      H2274   0.988       .  S
O2233      H2278   0.989       .  S
Zr2234     O2238   2.347       .  S
Zr2234     O2237   2.373       .  S
Zr2234     O2262   2.370       .  S
Zr2234     O2264   2.370       .  S
Zr2234     O2235   2.436   1_554  S
Zr2234     O2236   2.433       .  S
O2235      H2276   0.990       .  S
O2235      H2279   0.990       .  S
O2236      H2269   0.990       .  S
O2237     Zr2257   2.387       .  S
O2238     Zr2258   2.390       .  S
O2238      H2265   0.960       .  S
O2239     Zr3203   2.412       .  S
O2239      C3193   1.282       .  A
O2240     Zr2258   2.537       .  S
O2240      C2241   1.309   1_545  A
C2241      O3191   1.282       .  A
C2241      C3491   1.515       .  S
O2242     Zr2254   2.391       .  S
O2242      C2244   1.279       .  A
O2243     Zr2257   2.496       .  S
O2243      C2244   1.299       .  A
C2244      C2466   1.506       .  S
O2245     Zr2254   2.378       .  S
O2245      C2247   1.275       .  A
O2246     Zr2258   2.475       .  S
O2246      C2247   1.296       .  A
C2247      C2311   1.453       .  S
O2248     Zr3203   2.372       .  S
O2248      C3202   1.275       .  A
O2249     Zr2257   2.403       .  S
O2249      C2250   1.282       .  A
C2250      O3200   1.275   1_545  A
C2250      C2863   1.418   1_545  S
Zr2251     O3191   2.412   1_545  S
Zr2251     O3200   2.372   1_545  S
Zr2251     O2259   2.339       .  S
Zr2251     O2260   2.365       .  S
Zr2251     O2263   2.367       .  S
Zr2251     O2261   2.366   1_545  S
Zr2251     O2252   2.438       .  S
Zr2251     O3205   2.435   1_545  S
O2252      H2272   0.990       .  S
O2252      H3229   0.990   1_545  S
O2253     Zr3203   2.435       .  S
O2253      H2273   0.989       .  S
Zr2254     O2260   2.355       .  S
Zr2254     O2259   2.358       .  S
Zr2254     O2264   2.364       .  S
Zr2254     O2262   2.352       .  S
Zr2254     O2255   2.434       .  S
Zr2254     O2256   2.430       .  S
O2255      H2271   0.990       .  S
O2256      H2270   0.990       .  S
O2256      H2280   0.990       .  S
Zr2257     O2260   2.394       .  S
Zr2257     O2262   2.420       .  S
Zr2257     O2263   2.399       .  S
Zr2258     O2259   2.391       .  S
Zr2258     O2261   2.401   1_545  S
Zr2258     O2264   2.416       .  S
O2259      H2267   0.964       .  S
O2262      H2266   0.966       .  S
O2263      H3220   0.966   1_545  S
H2268      O3215   0.966       .  S
H2277      O3204   0.990       .  S
C2281      C2455   1.572       .  S
C2281      C2662   1.609       .  S
C2281      C2721   1.601       .  S
C2281      C2746   1.612       .  S
C2282      C2441   1.606       .  S
C2282      C2637   1.573       .  S
C2282      C2735   1.589       .  S
C2282      C2777   1.602       .  S
O2283     Zr2295   2.444       .  S
O2283      C2285   1.286       .  A
O2284     Zr2321   2.514       .  S
O2284      C2285   1.304       .  A
C2285      C2438   1.522       .  S
O2286     Zr2298   2.475       .  S
O2286      C2288   1.292       .  A
O2287     Zr2322   2.463       .  S
O2287      C2288   1.291       .  A
C2288      C2410   1.508       .  S
O2289     Zr2298   2.367       .  S
O2289      C2291   1.273       .  A
O2290     Zr2321   2.437       .  S
O2290      C2291   1.293       .  A
O2292     Zr2295   2.359       .  S
O2292      C2294   1.273       .  A
O2293     Zr2322   2.416       .  S
O2293      C2294   1.289       .  A
Zr2295     O2301   2.336       .  S
Zr2295     O2302   2.390       .  S
Zr2295     O2325   2.390       .  S
Zr2295     O2327   2.352       .  S
Zr2295     O2296   2.432       .  S
Zr2295     O2297   2.433       .  S
O2296      H2339   0.990       .  S
O2297      H2338   0.990       .  S
O2297      H2342   0.990       .  S
Zr2298     O2302   2.341       .  S
Zr2298     O2301   2.388       .  S
Zr2298     O2326   2.398       .  S
Zr2298     O2328   2.340       .  S
Zr2298     O2299   2.429       .  S
Zr2298     O2300   2.424       .  S
O2299      H2340   0.989       .  S
O2299      H2343   0.990       .  S
O2300      H2333   0.990       .  S
O2301     Zr2321   2.381       .  S
O2302     Zr2322   2.383       .  S
O2302      H2329   0.965       .  S
O2303     Zr2315   2.432       .  S
O2303      C2305   1.285       .  A
O2304     Zr2322   2.470       .  S
O2304      C2305   1.293       .  A
C2305      C2452   1.496       .  S
O2306     Zr2318   2.518       .  S
O2306      C2308   1.303       .  A
O2307     Zr2321   2.475       .  S
O2307      C2308   1.296       .  A
C2308      C2424   1.529       .  S
O2309     Zr2318   2.463       .  S
O2309      C2311   1.295       .  A
O2310     Zr2322   2.404       .  S
O2310      C2311   1.281       .  A
O2312     Zr2315   2.365       .  S
O2312      C2314   1.273       .  A
O2313     Zr2321   2.473       .  S
O2313      C2314   1.300       .  A
C2314      C2367   1.457       .  S
Zr2315     O2323   2.353       .  S
Zr2315     O2324   2.379       .  S
Zr2315     O2327   2.390       .  S
Zr2315     O2325   2.350       .  S
Zr2315     O2316   2.436       .  S
Zr2315     O2317   2.432       .  S
O2316      H2336   0.989       .  S
O2316      H2341   0.990       .  S
O2317      H2337   0.990       .  S
Zr2318     O2324   2.358       .  S
Zr2318     O2323   2.388       .  S
Zr2318     O2328   2.388       .  S
Zr2318     O2326   2.363       .  S
Zr2318     O2319   2.434       .  S
Zr2318     O2320   2.433       .  S
O2319      H2335   0.990       .  S
O2320      H2334   0.990       .  S
O2320      H2344   0.990       .  S
Zr2321     O2324   2.386       .  S
Zr2321     O2326   2.416       .  S
Zr2321     O2327   2.384       .  S
Zr2322     O2323   2.397       .  S
Zr2322     O2325   2.387       .  S
Zr2322     O2328   2.394       .  S
O2323      H2331   0.966       .  S
O2326      H2330   0.966       .  S
O2327      H2332   0.966       .  S
O2345     Zr2357   2.354       .  S
O2345      C2347   1.271       .  A
O2346     Zr2383   2.404       .  S
O2346      C2347   1.287       .  A
O2348     Zr2360   2.368       .  S
O2348      C2350   1.274       .  A
O2349     Zr2384   2.449       .  S
O2349      C2350   1.295       .  A
O2351     Zr2360   2.460       .  S
O2351      C2353   1.290       .  A
O2352     Zr2383   2.467       .  S
O2352      C2353   1.294       .  A
C2353      C2833   1.502       .  S
O2354     Zr2357   2.439       .  S
O2354      C2356   1.286       .  A
O2355     Zr2384   2.494       .  S
O2355      C2356   1.300       .  A
C2356      C2511   1.504       .  S
Zr2357     O2363   2.383       .  S
Zr2357     O2364   2.330       .  S
Zr2357     O2387   2.353       .  S
Zr2357     O2389   2.387       .  S
Zr2357     O2358   2.434       .  S
Zr2357     O2359   2.428       .  S
O2358      H2401   0.990       .  S
O2359      H2400   0.990       .  S
O2359      H2404   0.990       .  S
Zr2360     O2364   2.379       .  S
Zr2360     O2363   2.347       .  S
Zr2360     O2388   2.328       .  S
Zr2360     O2390   2.400       .  S
Zr2360     O2361   2.438       .  S
Zr2360     O2362   2.435       .  S
O2361      H2402   0.990       .  S
O2361      H2405   0.990       .  S
O2362      H2395   0.990       .  S
O2363     Zr2383   2.384       .  S
O2364     Zr2384   2.384       .  S
O2364      H2391   0.965       .  S
O2365     Zr2377   2.371       .  S
O2365      C2367   1.273       .  A
O2366     Zr2384   2.474       .  S
O2366      C2367   1.301       .  A
O2368     Zr2380   2.455       .  S
O2368      C2370   1.296       .  A
O2369     Zr2383   2.422       .  S
O2369      C2370   1.285       .  A
O2371     Zr2380   2.501       .  S
O2371      C2373   1.296       .  A
O2372     Zr2384   2.460       .  S
O2372      C2373   1.293       .  A
C2373      C2564   1.521       .  S
O2374     Zr2377   2.424       .  S
O2374      C2376   1.283       .  A
O2375     Zr2383   2.512       .  S
O2375      C2376   1.302       .  A
C2376      C2620   1.527       .  S
Zr2377     O2385   2.375       .  S
Zr2377     O2386   2.359       .  S
Zr2377     O2389   2.346       .  S
Zr2377     O2387   2.390       .  S
Zr2377     O2378   2.439       .  S
Zr2377     O2379   2.433       .  S
O2378      H2398   0.990       .  S
O2378      H2403   0.990       .  S
O2379      H2399   0.990       .  S
Zr2380     O2386   2.377       .  S
Zr2380     O2385   2.341       .  S
Zr2380     O2390   2.374       .  S
Zr2380     O2388   2.397       .  S
Zr2380     O2381   2.435       .  S
Zr2380     O2382   2.438       .  S
O2381      H2397   0.990       .  S
O2382      H2396   0.991       .  S
O2382      H2406   0.990       .  S
Zr2383     O2386   2.392       .  S
Zr2383     O2388   2.406       .  S
Zr2383     O2389   2.395       .  S
Zr2384     O2385   2.392       .  S
Zr2384     O2387   2.385       .  S
Zr2384     O2390   2.410       .  S
O2385      H2393   0.966       .  S
O2388      H2392   0.965       .  S
O2389      H2394   0.966       .  S
C2407      C2427   1.628       .  S
C2407      C2679   1.619       .  S
C2407      C2690   1.569       .  S
C2407      C2791   1.617       .  S
C2408      C2413   1.607       .  S
C2408      C2651   1.594       .  S
C2408      C2707   1.573       .  S
C2408      C2763   1.576       .  S
C2409      C2410   1.408       .  A
C2409      C2414   1.426       .  A
C2409      H2416   1.084       .  S
C2410      C2411   1.409       .  A
C2411      C2412   1.409       .  A
C2411      N2418   1.441       .  S
C2412      C2413   1.425       .  A
C2412      H2417   1.077       .  S
C2413      C2414   1.436       .  A
C2414      N2415   1.432       .  S
N2415      O2419   1.262       .  A
N2415      O2420   1.263       .  A
N2418      O2421   1.263       .  A
N2418      O2422   1.263       .  A
C2423      C2424   1.397       .  A
C2423      C2428   1.416       .  A
C2423      H2430   1.085       .  S
C2424      C2425   1.425       .  A
C2425      C2426   1.439       .  A
C2425      N2432   1.444       .  S
C2426      C2427   1.429       .  A
C2426      H2431   1.071       .  S
C2427      C2428   1.447       .  A
C2428      N2429   1.426       .  S
N2429      O2433   1.262       .  A
N2429      O2434   1.260       .  A
N2432      O2435   1.263       .  A
N2432      O2436   1.263       .  A
C2437      C2438   1.404       .  A
C2437      C2442   1.416       .  A
C2437      H2444   1.084       .  S
C2438      C2439   1.417       .  A
C2439      C2440   1.426       .  A
C2439      N2446   1.431       .  S
C2440      C2441   1.422       .  A
C2440      H2445   1.079       .  S
C2441      C2442   1.436       .  A
C2442      N2443   1.432       .  S
N2443      O2447   1.262       .  A
N2443      O2448   1.262       .  A
N2446      O2449   1.260       .  A
N2446      O2450   1.261       .  A
C2451      C2452   1.403       .  A
C2451      C2456   1.418       .  A
C2451      H2458   1.084       .  S
C2452      C2453   1.413       .  A
C2453      C2454   1.403       .  A
C2453      N2460   1.439       .  S
C2454      C2455   1.419       .  A
C2454      H2459   1.083       .  S
C2455      C2456   1.437       .  A
C2456      N2457   1.433       .  S
N2457      O2461   1.262       .  A
N2457      O2462   1.261       .  A
N2460      O2463   1.262       .  A
N2460      O2464   1.263       .  A
C2465      C2466   1.410       .  A
C2465      C2470   1.405       .  A
C2465      H2472   1.084       .  S
C2466      C2467   1.409       .  A
C2467      C2468   1.414       .  A
C2467      N2474   1.433       .  S
C2468      C2469   1.427       .  A
C2468      H2473   1.080       .  S
C2469      C2470   1.437       .  A
C2470      N2471   1.447       .  S
N2471      O2475   1.263       .  A
N2471      O2476   1.262       .  A
N2474      O2477   1.261       .  A
N2474      O2478   1.262       .  A
C2479      C2480   1.439       .  A
C2479      H2486   1.082       .  S
C2480      C2481   1.453       .  A
C2481      C2482   1.393       .  A
C2481      N2488   1.429       .  S
C2482      C2483   1.393       .  A
C2482      H2487   1.085       .  S
C2484      N2485   1.440       .  S
N2485      O2489   1.262       .  A
N2485      O2490   1.261       .  A
N2488      O2491   1.264       .  A
N2488      O2492   1.262       .  A
C2493      C2494   1.396       .  A
C2493      C2498   1.412       .  A
C2493      H2500   1.084       .  S
C2495      N2502   1.444       .  S
C2496      C2497   1.428       .  A
C2497      C2498   1.434       .  A
C2498      N2499   1.432       .  S
N2499      O2503   1.260       .  A
N2499      O2504   1.264       .  A
N2502      O2505   1.262       .  A
N2502      O2506   1.263       .  A
C2507      C2508   1.428       .  A
C2507      C2512   1.421       .  A
C2507      H2514   1.067       .  S
C2508      C2509   1.465       .  A
C2509      C2510   1.416       .  A
C2509      N2516   1.437       .  S
C2510      C2511   1.389       .  A
C2510      H2515   1.085       .  S
C2511      C2512   1.411       .  A
C2512      N2513   1.441       .  S
N2513      O2517   1.262       .  A
N2513      O2518   1.262       .  A
N2516      O2519   1.263       .  A
N2516      O2520   1.259       .  A
C2521      C2522   1.420       .  A
C2521      C2526   1.399       .  A
C2521      H2528   1.073       .  S
C2522      C2523   1.428       .  A
C2523      C2524   1.413       .  A
C2523      N2530   1.431       .  S
C2524      C2525   1.407       .  A
C2524      H2529   1.084       .  S
C2525      C2526   1.411       .  A
C2526      N2527   1.452       .  S
N2527      O2531   1.263       .  A
N2527      O2532   1.261       .  A
N2530      O2533   1.260       .  A
N2530      O2534   1.261       .  A
C2535      C2536   1.415       .  A
C2535      C2540   1.404       .  A
C2535      H2542   1.075       .  S
C2536      C2537   1.441       .  A
C2537      C3490   1.430       .  A
C2537      N3496   1.428       .  S
C2538      C3489   1.430       .  A
C2538      C3491   1.407       .  A
C2538      H2543   1.084   1_565  S
C2539      C3193   1.515       .  S
C2539      C3490   1.407       .  A
C2539      C2540   1.414       .  A
C2540      N2541   1.434       .  S
N2541      O2545   1.263       .  A
N2541      O2546   1.260       .  A
N2544      C3489   1.428   1_545  S
N2544      O2547   1.260       .  A
N2544      O2548   1.262       .  A
C2549      C3502   1.407       .  A
C2549      C3506   1.421       .  A
C2549      H2556   1.084   1_565  S
C2550      C3075   1.498       .  S
C2550      C3501   1.407       .  A
C2550      C2551   1.406       .  A
C2551      C2552   1.405       .  A
C2551      N2558   1.441       .  S
C2552      C2553   1.429       .  A
C2552      H2557   1.074       .  S
C2553      C2554   1.435       .  A
C2554      C3501   1.421       .  A
C2554      N3507   1.438       .  S
N2555      C3506   1.438       .  S
N2555      O2559   1.261       .  A
N2555      O3512   1.262       .  A
N2558      O2561   1.261       .  A
N2558      O2562   1.263       .  A
O2560      N3507   1.262       .  A
C2563      C2564   1.405       .  A
C2563      C2568   1.419       .  A
C2563      H2570   1.084       .  S
C2564      C2565   1.418       .  A
C2565      C2566   1.422       .  A
C2565      N2572   1.439       .  S
C2566      C2567   1.426       .  A
C2566      H2571   1.076       .  S
C2567      C2568   1.439       .  A
C2568      N2569   1.436       .  S
N2569      O2573   1.261       .  A
N2569      O2574   1.263       .  A
N2572      O2575   1.261       .  A
N2572      O2576   1.263       .  A
C2577      C2578   1.428       .  A
C2577      C2582   1.430       .  A
C2577      H2584   1.079       .  S
C2578      C2579   1.436       .  A
C2579      C2580   1.396       .  A
C2579      N2586   1.427       .  S
C2580      C2581   1.393       .  A
C2580      H2585   1.086       .  S
C2581      C2582   1.419       .  A
C2582      N2583   1.442       .  S
N2583      O2587   1.259       .  A
N2583      O2588   1.260       .  A
N2586      O2589   1.262       .  A
N2586      O2590   1.263       .  A
C2591      C2592   1.401       .  A
C2591      C2596   1.412       .  A
C2591      H2598   1.084       .  S
C2592      C2593   1.400       .  A
C2593      C2594   1.389       .  A
C2593      N2600   1.441       .  S
C2594      C2595   1.422       .  A
C2594      H2599   1.081       .  S
C2595      C2596   1.433       .  A
C2596      N2597   1.433       .  S
N2597      O2601   1.260       .  A
N2597      O2602   1.260       .  A
N2600      O2603   1.263       .  A
N2600      O2604   1.261       .  A
C2605      C2606   1.390       .  A
C2605      C2610   1.407       .  A
C2605      H2612   1.085   1_556  S
C2606      C2607   1.422       .  A
C2607      C2608   1.418       .  A
C2607      N2614   1.443       .  S
C2608      C2609   1.415       .  A
C2608      H2613   1.083       .  S
C2609      C2610   1.453       .  A
C2610      N2611   1.437       .  S
N2611      O2615   1.263   1_556  A
N2611      O2616   1.261       .  A
N2614      O2617   1.262       .  A
N2614      O2618   1.263       .  A
C2619      C2620   1.406       .  A
C2619      C2624   1.428       .  A
C2619      H2626   1.083       .  S
C2620      C2621   1.423       .  A
C2621      C2622   1.405       .  A
C2621      N2628   1.433       .  S
C2622      C2623   1.414       .  A
C2622      H2627   1.079       .  S
C2623      C2624   1.441       .  A
C2624      N2625   1.432       .  S
N2625      O2629   1.261       .  A
N2625      O2630   1.262       .  A
N2628      O2631   1.261       .  A
N2628      O2632   1.263       .  A
C2633      C2634   1.403       .  A
C2633      C2638   1.398       .  A
C2633      H2640   1.085       .  S
C2634      C2635   1.413       .  A
C2635      C2636   1.421       .  A
C2635      N2642   1.432       .  S
C2636      C2637   1.419       .  A
C2636      H2641   1.076       .  S
C2637      C2638   1.434       .  A
C2638      N2639   1.433       .  S
N2639      O2643   1.262       .  A
N2639      O2644   1.262       .  A
N2642      O2645   1.259       .  A
N2642      O2646   1.262       .  A
C2647      C2648   1.405   1_554  A
C2647      C2652   1.413       .  A
C2647      H2654   1.082       .  S
C2648      C3601   1.399       .  A
C2649      C3600   1.399   1_545  A
C2649      C2650   1.405   1_556  A
C2649      N2656   1.440       .  S
C2650      C2651   1.432       .  A
C2650      H2655   1.069   1_554  S
C2651      C3604   1.433   1_545  A
C2652      C3603   1.433       .  A
C2652      N2653   1.435       .  S
N2653      O2657   1.261       .  A
N2653      O2658   1.261       .  A
N2656      O2659   1.262       .  A
N2656      O2660   1.262       .  A
C2661      C2662   1.424       .  A
C2661      C2666   1.414       .  A
C2661      H2668   1.079       .  S
C2662      C2663   1.444       .  A
C2663      C2664   1.411   1_554  A
C2663      N2670   1.418   1_554  S
C2664      C2665   1.389       .  A
C2664      H2669   1.085       .  S
C2665      C2666   1.411   1_556  A
C2666      N2667   1.435       .  S
N2667      O2671   1.260       .  A
N2667      O2672   1.256       .  A
N2670      O2673   1.261   1_556  A
N2670      O2674   1.263       .  A
C2675      C3628   1.380   1_545  A
C2675      C2680   1.411       .  A
C2675      H2682   1.084       .  S
C2676      C3627   1.380       .  A
C2676      C2677   1.412       .  A
C2677      C2678   1.418       .  A
C2677      N2684   1.424       .  S
C2678      C3631   1.413       .  A
C2678      H2683   1.083       .  S
C2679      C3630   1.413       .  A
C2679      C2680   1.470       .  A
C2680      N2681   1.440       .  S
N2681      O2685   1.264       .  A
N2681      O2686   1.258       .  A
N2684      O2687   1.262       .  A
N2684      O2688   1.262       .  A
C2689      C2690   1.418       .  A
C2689      C2694   1.403       .  A
C2689      H2696   1.078       .  S
C2690      C2691   1.443       .  A
C2691      C2692   1.411       .  A
C2691      N2698   1.443       .  S
C2692      C2693   1.398       .  A
C2692      H2697   1.084       .  S
C2693      C2694   1.410       .  A
C2694      N2695   1.435       .  S
N2695      O2699   1.262       .  A
N2695      O2700   1.262       .  A
N2698      O2701   1.264       .  A
N2698      O2702   1.259       .  A
C2703      C2704   1.392       .  A
C2703      C2708   1.401   1_655  A
C2703      H2710   1.084       .  S
C2705      C2706   1.399       .  A
C2705      N2712   1.432   1_554  S
C2706      C2707   1.415       .  A
C2706      H2711   1.084       .  S
C2708      N2709   1.434   1_455  S
N2709      O2713   1.261       .  A
N2709      O2714   1.263       .  A
N2712      O2715   1.262       .  A
N2712      O2716   1.261       .  A
C2717      C2718   1.391       .  A
C2717      C2722   1.401       .  A
C2717      H2724   1.084   1_554  S
C2718      C2719   1.406       .  A
C2719      C2720   1.406       .  A
C2719      N2726   1.441       .  S
C2720      C2721   1.425       .  A
C2720      H2725   1.076       .  S
C2721      C2722   1.437       .  A
C2722      N2723   1.444       .  S
N2723      O2727   1.264       .  A
N2723      O2728   1.258       .  A
N2726      O2729   1.262       .  A
N2726      O2730   1.263       .  A
C2731      C2736   1.383       .  A
C2731      H2738   1.083       .  S
C2732      C2733   1.420       .  A
C2733      C2734   1.425   1_655  A
C2733      N2740   1.436       .  S
C2734      H2739   1.082       .  S
C2735      C2736   1.443       .  A
C2736      N2737   1.432       .  S
N2737      O2741   1.264       .  A
N2737      O2742   1.262       .  A
N2740      O2743   1.262       .  A
N2740      O2744   1.262       .  A
C2745      C2746   1.427       .  A
C2745      C2750   1.423       .  A
C2745      H2752   1.084       .  S
C2746      C2747   1.432       .  A
C2747      C2748   1.406       .  A
C2747      N2754   1.435       .  S
C2748      C2749   1.409       .  A
C2748      H2753   1.083       .  S
C2749      C2750   1.419       .  A
C2750      N2751   1.433       .  S
N2751      O2755   1.262       .  A
N2751      O2756   1.262       .  A
N2754      O2757   1.263       .  A
N2754      O2758   1.261       .  A
C2759      C2760   1.405   1_655  A
C2760      C3713   1.420       .  A
C2761      C3712   1.420   1_545  A
C2761      C2762   1.391       .  A
C2761      N2768   1.432       .  S
C2762      H2767   1.075       .  S
C2763      C3716   1.440       .  A
C2764      C3715   1.440       .  A
C2764      N2765   1.437       .  S
N2765      O2769   1.262       .  A
N2765      O2770   1.261       .  A
N2768      O2771   1.262       .  A
N2768      O2772   1.262       .  A
C2773      C2774   1.406       .  A
C2773      H2780   1.083       .  S
C2774      C2775   1.422   1_655  A
C2775      C2776   1.399       .  A
C2775      N2782   1.433       .  S
C2776      H2781   1.078       .  S
C2777      C2778   1.442       .  A
C2778      N2779   1.431       .  S
N2779      O2783   1.262       .  A
N2779      O2784   1.261       .  A
N2782      O2785   1.263       .  A
N2782      O2786   1.262   1_455  A
C2787      C2788   1.406       .  A
C2787      C3744   1.424       .  A
C2787      H2794   1.083       .  S
C2788      C3741   1.414       .  A
C2789      C3740   1.414   1_545  A
C2789      C2790   1.406       .  A
C2789      N3748   1.430       .  S
C2790      C2791   1.426       .  A
C2790      H2795   1.075       .  S
C2791      C2792   1.441       .  A
C2792      C3739   1.424   1_545  A
C2792      N2793   1.428       .  S
N2793      O2797   1.261   1_545  A
N2793      O2798   1.263       .  A
N2796      C3741   1.430       .  S
N2796      O2799   1.262       .  A
N2796      O3752   1.262       .  A
O2800      N3748   1.262       .  A
C2801      C2802   1.409       .  A
C2801      C2806   1.399       .  A
C2801      H2808   1.080       .  S
C2802      C2803   1.444       .  A
C2803      C3756   1.418       .  A
C2803      N3762   1.424       .  S
C2804      C3755   1.418       .  A
C2804      C3757   1.394       .  A
C2804      H2809   1.084   1_565  S
C2805      C3173   1.504   1_556  S
C2805      C3756   1.394       .  A
C2805      C2806   1.423       .  A
C2806      N2807   1.439       .  S
N2807      O2811   1.263       .  A
N2807      O2812   1.262   1_556  A
N2810      C3755   1.424       .  S
N2810      O2813   1.261   1_565  A
N2810      O2814   1.262       .  A
C2815      C2816   1.414       .  A
C2815      C3772   1.409       .  A
C2815      H3774   1.080       .  S
C2816      C2817   1.429       .  A
C2817      C2818   1.392       .  A
C2817      N2824   1.432       .  S
C2818      C3771   1.397       .  A
C2819      C3770   1.397       .  A
C2819      C2820   1.412   1_565  A
C2820      C3767   1.409   1_545  A
C2820      N2821   1.442       .  S
N2821      O2825   1.262       .  A
N2821      O2826   1.260       .  A
H2822      C3767   1.080       .  S
N2824      O2827   1.262       .  A
C2829      C2830   1.421       .  A
C2829      C2834   1.415       .  A
C2829      H2836   1.078       .  S
C2830      C2831   1.431       .  A
C2831      C2832   1.413       .  A
C2831      N2838   1.431       .  S
C2832      C2833   1.403       .  A
C2832      H2837   1.084       .  S
C2833      C2834   1.417       .  A
C2834      N2835   1.442       .  S
N2835      O2839   1.263       .  A
N2835      O2840   1.259       .  A
N2838      O2841   1.262       .  A
N2838      O2842   1.262       .  A
C2843      C2844   1.419       .  A
C2843      C2848   1.394       .  A
C2843      H2850   1.079       .  S
C2844      C2845   1.447       .  A
C2845      N2852   1.438       .  S
C2846      H2851   1.085       .  S
C2847      C2848   1.401       .  A
C2848      N2849   1.441       .  S
N2849      O2853   1.263       .  A
N2849      O2854   1.262       .  A
N2852      O2856   1.263   1_655  A
C2857      C3754   1.590       .  S
C2857      C3768   1.552       .  S
C2857      C3782   1.595       .  S
C2857      C3796   1.572       .  S
O2858     Zr2870   2.321       .  S
O2858      C2860   1.263       .  A
O2859     Zr2896   2.479       .  S
O2859      C2860   1.303       .  A
O2861     Zr2873   2.409       .  S
O2861      C2863   1.284       .  A
O2862     Zr2897   2.385       .  S
O2862      C2863   1.278       .  A
O2864     Zr2873   2.472       .  S
O2864      C2866   1.294       .  A
O2865     Zr2896   2.474       .  S
O2865      C2866   1.297       .  A
C2866      C3740   1.524       .  S
O2867     Zr2870   2.408       .  S
O2867      C2869   1.279       .  A
O2868     Zr2897   2.466       .  S
O2868      C2869   1.293       .  A
C2869      C3712   1.504   1_655  S
Zr2870     O2876   2.380       .  S
Zr2870     O2877   2.326       .  S
Zr2870     O2900   2.317       .  S
Zr2870     O2902   2.381       .  S
O2871      H2914   0.990       .  S
O2872      H2913   0.990       .  S
O2872      H2917   0.990       .  S
Zr2873     O2877   2.373       .  S
Zr2873     O2876   2.354       .  S
Zr2873     O2901   2.341       .  S
Zr2873     O2903   2.382       .  S
Zr2873     O2875   2.431       .  S
O2874      H2915   0.990       .  S
O2874      H2918   0.990       .  S
O2875      H2908   0.990       .  S
O2876     Zr2896   2.386       .  S
O2877     Zr2897   2.391       .  S
O2877      H2904   0.966       .  S
O2878     Zr2890   2.364       .  S
O2878      C2880   1.270       .  A
O2879     Zr2897   2.410       .  S
O2879      C2880   1.289       .  A
O2881     Zr2893   2.370       .  S
O2881      C2883   1.275       .  A
O2882     Zr2896   2.449       .  S
O2882      C2883   1.297       .  A
C2883      C3302   1.445       .  S
O2884     Zr2893   2.431       .  S
O2884      C2886   1.286       .  A
O2885     Zr2897   2.488       .  S
O2885      C2886   1.296       .  A
C2886      C3701   1.523       .  S
O2887     Zr2890   2.431       .  S
O2887      C2889   1.283       .  A
O2888     Zr2896   2.494       .  S
O2888      C2889   1.299       .  A
C2889      C3726   1.522       .  S
Zr2890     O2898   2.384       .  S
Zr2890     O2899   2.339       .  S
Zr2890     O2902   2.354       .  S
Zr2890     O2900   2.372       .  S
Zr2890     O2891   2.437       .  S
O2891      H2911   0.990       .  S
O2891      H2916   0.989       .  S
O2892      H2912   0.991       .  S
Zr2893     O2899   2.392       .  S
Zr2893     O2898   2.353       .  S
Zr2893     O2903   2.348       .  S
Zr2893     O2901   2.376       .  S
Zr2893     O2894   2.435       .  S
Zr2893     O2895   2.435       .  S
O2894      H2910   0.990       .  S
O2895      H2909   0.990       .  S
O2895      H2919   0.990       .  S
Zr2896     O2899   2.398       .  S
Zr2896     O2901   2.396       .  S
Zr2896     O2902   2.381       .  S
Zr2897     O2898   2.393       .  S
Zr2897     O2900   2.363       .  S
Zr2897     O2903   2.386       .  S
O2898      H2906   0.966       .  S
O2901      H2905   0.965       .  S
O2902      H2907   0.965       .  S
O2920     Zr2932   2.332       .  S
O2920      C2922   1.268       .  A
O2921     Zr2958   2.412       .  S
O2921      C2922   1.286       .  A
O2923     Zr2935   2.350       .  S
O2923      C2925   1.272       .  A
O2924     Zr2959   2.407       .  S
O2924      C2925   1.286       .  A
C2925      C3299   1.423       .  S
O2926     Zr2935   2.428       .  S
O2926      C2928   1.284       .  A
O2927     Zr2958   2.412       .  S
O2927      C2928   1.282       .  A
C2928      C3670   1.464   1_556  S
O2929     Zr2932   2.419       .  S
O2929      C2931   1.285       .  A
O2930     Zr2959   2.440       .  S
O2930      C2931   1.283       .  A
C2931      C3684   1.509       .  S
Zr2932     O2938   2.385       .  S
Zr2932     O2939   2.327       .  S
Zr2932     O2962   2.331       .  S
Zr2932     O2964   2.379       .  S
Zr2932     O2933   2.436       .  S
O2933      H2976   0.990       .  S
O2934      H2975   0.990       .  S
O2934      H2979   0.990       .  S
Zr2935     O2939   2.393       .  S
Zr2935     O2938   2.340       .  S
Zr2935     O2963   2.347       .  S
Zr2935     O2965   2.380       .  S
Zr2935     O2936   2.434       .  S
Zr2935     O2937   2.435       .  S
O2936      H2977   0.988       .  S
O2936      H2980   0.990       .  S
O2937      H2970   0.990       .  S
O2938     Zr2958   2.380       .  S
O2939     Zr2959   2.387       .  S
O2939      H2966   0.966       .  S
O2940     Zr2952   2.349       .  S
O2940      C2942   1.272       .  A
O2941     Zr2959   2.409       .  S
O2941      C2942   1.285       .  A
O2943     Zr2955   2.420       .  S
O2943      C2945   1.286       .  A
O2944     Zr2958   2.404       .  S
O2944      C2945   1.282       .  A
C2945      C3179   1.444   1_556  S
O2946     Zr2955   2.487       .  S
O2946      C2948   1.296       .  A
O2947     Zr2959   2.389       .  S
O2947      C2948   1.277       .  A
C2948      C3645   1.485       .  S
O2949     Zr2952   2.444       .  S
O2949      C2951   1.287       .  A
O2950     Zr2958   2.396       .  S
O2950      C2951   1.279       .  A
C2951      C3656   1.466   1_556  S
Zr2952     O2960   2.393       .  S
Zr2952     O2961   2.330       .  S
Zr2952     O2964   2.321       .  S
Zr2952     O2962   2.380       .  S
Zr2952     O2953   2.425       .  S
O2953      H2973   0.988       .  S
O2953      H2978   0.989       .  S
O2954      H2974   0.990       .  S
Zr2955     O2961   2.385       .  S
Zr2955     O2960   2.360       .  S
Zr2955     O2965   2.336       .  S
Zr2955     O2963   2.384       .  S
Zr2955     O2956   2.434       .  S
Zr2955     O2957   2.432       .  S
O2956      H2972   0.990       .  S
O2957      H2971   0.990       .  S
O2957      H2981   0.990       .  S
Zr2958     O2961   2.379       .  S
Zr2958     O2963   2.384       .  S
Zr2958     O2964   2.373       .  S
Zr2959     O2960   2.395       .  S
Zr2959     O2962   2.362       .  S
Zr2959     O2965   2.378       .  S
O2960      H2968   0.966       .  S
O2963      H2967   0.966       .  S
O2964      H2969   0.963       .  S
O2982     Zr2994   2.327       .  S
O2982      C2984   1.261       .  A
O2983     Zr3020   2.494       .  S
O2983      C2984   1.307       .  A
O2985     Zr2997   2.359       .  S
O2985      C2987   1.273       .  A
O2986     Zr3021   2.442       .  S
O2986      C2987   1.289       .  A
C2987      C3117   1.433       .  S
O2988     Zr2997   2.425       .  S
O2988      C2990   1.284       .  A
O2989     Zr3020   2.490       .  S
O2989      C2990   1.300       .  A
C2990      C3617   1.496       .  S
O2991     Zr2994   2.394       .  S
O2991      C2993   1.276       .  A
O2992     Zr3021   2.487       .  S
O2992      C2993   1.298       .  A
C2993      C3600   1.481       .  S
Zr2994     O3000   2.370       .  S
Zr2994     O3001   2.345       .  S
Zr2994     O3024   2.345       .  S
Zr2994     O3026   2.382       .  S
Zr2994     O2995   2.437       .  S
O2995      H3038   0.991   1_556  S
O2996      H3037   0.989       .  S
O2996      H3041   0.990       .  S
Zr2997     O3001   2.367       .  S
Zr2997     O3000   2.325       .  S
Zr2997     O3025   2.348       .  S
Zr2997     O3027   2.383       .  S
Zr2997     O2998   2.437   1_556  S
Zr2997     O2999   2.427       .  S
O2998      H3039   0.989       .  S
O2998      H3042   0.990       .  S
O2999      H3032   0.990       .  S
O3000     Zr3020   2.374       .  S
O3001     Zr3021   2.394       .  S
O3001      H3028   0.965       .  S
O3002     Zr3014   2.388       .  S
O3002      C3004   1.277       .  A
O3003     Zr3021   2.427       .  S
O3003      C3004   1.287       .  A
O3005     Zr3017   2.341       .  S
O3005      C3007   1.268       .  A
O3006     Zr3020   2.486       .  S
O3006      C3007   1.297       .  A
C3007      C3322   1.453       .  S
O3008     Zr3017   2.380       .  S
O3008      C3010   1.275       .  A
O3009     Zr3021   2.514       .  S
O3009      C3010   1.303       .  A
C3010      C3586   1.498       .  S
O3011     Zr3014   2.419       .  S
O3011      C3013   1.282       .  A
O3012     Zr3020   2.502       .  S
O3012      C3013   1.304       .  A
C3013      C3628   1.499       .  S
Zr3014     O3022   2.369       .  S
Zr3014     O3023   2.342       .  S
Zr3014     O3026   2.357       .  S
Zr3014     O3024   2.379       .  S
Zr3014     O3015   2.436       .  S
O3015      H3035   0.990       .  S
O3015      H3040   0.990   1_565  S
O3016      H3036   0.990       .  S
Zr3017     O3023   2.354       .  S
Zr3017     O3022   2.348       .  S
Zr3017     O3027   2.338       .  S
Zr3017     O3025   2.359       .  S
Zr3017     O3018   2.434       .  S
Zr3017     O3019   2.429       .  S
O3018      H3034   0.991       .  S
O3019      H3033   0.990       .  S
O3019      H3043   0.990       .  S
Zr3020     O3023   2.377       .  S
Zr3020     O3025   2.402       .  S
Zr3020     O3026   2.414       .  S
Zr3021     O3022   2.391       .  S
Zr3021     O3024   2.410       .  S
Zr3021     O3027   2.403       .  S
O3022      H3030   0.965       .  S
O3025      H3029   0.966       .  S
O3026      H3031   0.966   1_565  S
C3044      C3530   1.605       .  S
C3044      C3547   1.563       .  S
C3044      C3561   1.594       .  S
C3044      C3575   1.602       .  S
C3045      C3474   1.582       .  S
C3045      C3488   1.603       .  S
C3045      C3505   1.597       .  S
C3045      C3519   1.606       .  S
C3046      C3421   1.568       .  S
C3046      C3432   1.638       .  S
C3046      C3449   1.620       .  S
C3046      C3460   1.629       .  S
O3048     Zr3085   2.395       .  S
O3048      C3049   1.286       .  A
O3050      C3052   1.262       .  A
O3051     Zr3086   2.480       .  S
O3054     Zr3085   2.454       .  S
O3054      C3055   1.291       .  A
O3057     Zr3086   2.472       .  S
O3057      C3058   1.295       .  A
Zr3059     O3065   2.383       .  S
Zr3059     O3066   2.349       .  S
Zr3059     O3089   2.345       .  S
Zr3059     O3091   2.387       .  S
Zr3059     O3061   2.431       .  S
O3060      H3103   0.990       .  S
O3061      H3102   0.990       .  S
Zr3062     O3066   2.375       .  S
Zr3062     O3065   2.333       .  S
Zr3062     O3090   2.340       .  S
Zr3062     O3092   2.379       .  S
O3063      H3104   0.990       .  S
O3063      H3107   0.990       .  S
O3064      H3097   0.989       .  S
O3065     Zr3085   2.371       .  S
O3066     Zr3086   2.374       .  S
O3067     Zr3079   2.374       .  S
O3067      C3069   1.275       .  A
O3068     Zr3086   2.431       .  S
O3068      C3069   1.293       .  A
C3069      C3243   1.441       .  S
O3070     Zr3082   2.427       .  S
O3070      C3072   1.288       .  A
O3071     Zr3085   2.391       .  S
O3071      C3072   1.278       .  A
O3073     Zr3082   2.475       .  S
O3073      C3075   1.293       .  A
O3074     Zr3086   2.453       .  S
O3074      C3075   1.293       .  A
O3076     Zr3079   2.425       .  S
O3076      C3078   1.284       .  A
O3077     Zr3085   2.467       .  S
O3077      C3078   1.292       .  A
C3078      C3533   1.499       .  S
Zr3079     O3087   2.368       .  S
Zr3079     O3088   2.340       .  S
Zr3079     O3091   2.354       .  S
Zr3079     O3089   2.396       .  S
Zr3079     O3080   2.439       .  S
Zr3079     O3081   2.434       .  S
O3080      H3100   0.990       .  S
O3080      H3105   0.990       .  S
O3081      H3101   0.989       .  S
Zr3082     O3088   2.377       .  S
Zr3082     O3087   2.348       .  S
Zr3082     O3092   2.356       .  S
Zr3082     O3090   2.379       .  S
Zr3082     O3083   2.432       .  S
O3083      H3099   0.990       .  S
O3084      H3098   0.990       .  S
O3084      H3108   0.990       .  S
Zr3085     O3088   2.383       .  S
Zr3085     O3090   2.387       .  S
Zr3085     O3091   2.387       .  S
Zr3086     O3087   2.393       .  S
Zr3086     O3089   2.395       .  S
Zr3086     O3092   2.381       .  S
O3087      H3095   0.965       .  S
O3091      H3096   0.966       .  S
O3110     Zr3147   2.406   1_556  S
O3110      C3111   1.280       .  A
O3112     Zr3124   2.464       .  S
O3112      C3114   1.291       .  A
O3113     Zr3148   2.416       .  S
O3113      C3114   1.284       .  A
C3114      C3477   1.477       .  S
O3115     Zr3124   2.433       .  S
O3115      C3117   1.289   1_554  A
O3116     Zr3147   2.384   1_556  S
O3116      C3117   1.275       .  A
O3119     Zr3148   2.423       .  S
O3119      C3120   1.288       .  A
Zr3121     O3127   2.322       .  S
Zr3121     O3128   2.380       .  S
Zr3121     O3151   2.382       .  S
Zr3121     O3153   2.331       .  S
Zr3121     O3122   2.431       .  S
O3122      H3165   0.990       .  S
O3123      H3164   0.990       .  S
O3123      H3168   0.990       .  S
Zr3124     O3128   2.364       .  S
Zr3124     O3127   2.372       .  S
Zr3124     O3152   2.363       .  S
Zr3124     O3154   2.345       .  S
Zr3124     O3125   2.435       .  S
Zr3124     O3126   2.434       .  S
O3125      H3166   0.989       .  S
O3125      H3169   0.989       .  S
O3126      H3159   0.990       .  S
O3127     Zr3147   2.379       .  S
O3128     Zr3148   2.400       .  S
O3128      H3155   0.966       .  S
O3130     Zr3148   2.478       .  S
O3130      C3131   1.292       .  A
O3132     Zr3144   2.432       .  S
O3132      C3134   1.286   1_554  A
O3133     Zr3147   2.419   1_556  S
O3133      C3134   1.283       .  A
C3134      C3544   1.464       .  S
O3135     Zr3144   2.364       .  S
O3135      C3137   1.273       .  A
O3136     Zr3148   2.411       .  S
O3136      C3137   1.288       .  A
C3137      C3246   1.428       .  S
O3139     Zr3147   2.405   1_556  S
O3139      C3140   1.287   1_556  A
Zr3141     O3149   2.332       .  S
Zr3141     O3150   2.384       .  S
Zr3141     O3153   2.389       .  S
Zr3141     O3151   2.337       .  S
Zr3141     O3142   2.437       .  S
O3142      H3162   0.990       .  S
O3143      H3163   0.990       .  S
Zr3144     O3150   2.352       .  S
Zr3144     O3149   2.389       .  S
Zr3144     O3154   2.377       .  S
Zr3144     O3152   2.348       .  S
Zr3144     O3145   2.436       .  S
Zr3144     O3146   2.440       .  S
O3145      H3161   0.990       .  S
O3146      H3160   0.990       .  S
O3146      H3170   0.990       .  S
Zr3147     O3150   2.382       .  S
Zr3147     O3152   2.386       .  S
Zr3147     O3153   2.367       .  S
Zr3148     O3149   2.388       .  S
Zr3148     O3151   2.361       .  S
Zr3148     O3154   2.389       .  S
O3149      H3157   0.966       .  S
O3152      H3156   0.966       .  S
O3172     Zr3209   2.524       .  S
O3172      C3173   1.303       .  A
O3174     Zr3186   2.446   1_556  S
O3174      C3176   1.287   1_556  A
O3175     Zr3210   2.491       .  S
O3175      C3176   1.302       .  A
C3176      C3558   1.496   1_554  S
O3177     Zr3186   2.415       .  S
O3177      C3179   1.276       .  A
O3178     Zr3209   2.414       .  S
O3178      C3179   1.279       .  A
O3181     Zr3210   2.500       .  S
O3181      C3182   1.307   1_554  A
Zr3183     O3189   2.337       .  S
Zr3183     O3190   2.364       .  S
Zr3183     O3213   2.362       .  S
Zr3183     O3215   2.335       .  S
Zr3183     O3184   2.436   1_554  S
O3184      H3227   0.991       .  S
O3185      H3226   0.988       .  S
O3185      H3230   0.989       .  S
Zr3186     O3190   2.347       .  S
Zr3186     O3189   2.373       .  S
Zr3186     O3214   2.370       .  S
Zr3186     O3216   2.370       .  S
Zr3186     O3187   2.436   1_554  S
Zr3186     O3188   2.433       .  S
O3187      H3228   0.990       .  S
O3187      H3231   0.990       .  S
O3188      H3221   0.990       .  S
O3189     Zr3209   2.387       .  S
O3190     Zr3210   2.390       .  S
O3190      H3217   0.960       .  S
O3192     Zr3210   2.537       .  S
O3192      C3193   1.309       .  A
O3194     Zr3206   2.391       .  S
O3194      C3196   1.279       .  A
O3195     Zr3209   2.496       .  S
O3195      C3196   1.299       .  A
C3196      C3418   1.506       .  S
O3197     Zr3206   2.378       .  S
O3197      C3199   1.275       .  A
O3198     Zr3210   2.475       .  S
O3198      C3199   1.296       .  A
C3199      C3263   1.453       .  S
O3201     Zr3209   2.403       .  S
O3201      C3202   1.282       .  A
Zr3203     O3211   2.339       .  S
Zr3203     O3212   2.365       .  S
Zr3203     O3215   2.367       .  S
Zr3203     O3213   2.366       .  S
Zr3203     O3204   2.438       .  S
O3204      H3224   0.990       .  S
O3205      H3225   0.989       .  S
Zr3206     O3212   2.355       .  S
Zr3206     O3211   2.358       .  S
Zr3206     O3216   2.364       .  S
Zr3206     O3214   2.352       .  S
Zr3206     O3207   2.434       .  S
Zr3206     O3208   2.430       .  S
O3207      H3223   0.990       .  S
O3208      H3222   0.990       .  S
O3208      H3232   0.990       .  S
Zr3209     O3212   2.394       .  S
Zr3209     O3214   2.420       .  S
Zr3209     O3215   2.399       .  S
Zr3210     O3211   2.391       .  S
Zr3210     O3213   2.401       .  S
Zr3210     O3216   2.416       .  S
O3211      H3219   0.964       .  S
O3214      H3218   0.966       .  S
C3233      C3407   1.572       .  S
C3233      C3614   1.609       .  S
C3233      C3673   1.601       .  S
C3233      C3698   1.612       .  S
C3234      C3393   1.606       .  S
C3234      C3589   1.573       .  S
C3234      C3687   1.589       .  S
C3234      C3729   1.602       .  S
O3235     Zr3247   2.444       .  S
O3235      C3237   1.286       .  A
O3236     Zr3273   2.514       .  S
O3236      C3237   1.304       .  A
C3237      C3390   1.522       .  S
O3238     Zr3250   2.475       .  S
O3238      C3240   1.292       .  A
O3239     Zr3274   2.463       .  S
O3239      C3240   1.291       .  A
C3240      C3362   1.508       .  S
O3241     Zr3250   2.367       .  S
O3241      C3243   1.273       .  A
O3242     Zr3273   2.437       .  S
O3242      C3243   1.293       .  A
O3244     Zr3247   2.359       .  S
O3244      C3246   1.273       .  A
O3245     Zr3274   2.416       .  S
O3245      C3246   1.289       .  A
Zr3247     O3253   2.336       .  S
Zr3247     O3254   2.390       .  S
Zr3247     O3277   2.390       .  S
Zr3247     O3279   2.352       .  S
Zr3247     O3248   2.432       .  S
Zr3247     O3249   2.433       .  S
O3248      H3291   0.990       .  S
O3249      H3290   0.990       .  S
O3249      H3294   0.990       .  S
Zr3250     O3254   2.341       .  S
Zr3250     O3253   2.388       .  S
Zr3250     O3278   2.398       .  S
Zr3250     O3280   2.340       .  S
Zr3250     O3251   2.429       .  S
Zr3250     O3252   2.424       .  S
O3251      H3292   0.989       .  S
O3251      H3295   0.990       .  S
O3252      H3285   0.990       .  S
O3253     Zr3273   2.381       .  S
O3254     Zr3274   2.383       .  S
O3254      H3281   0.965       .  S
O3255     Zr3267   2.432       .  S
O3255      C3257   1.285       .  A
O3256     Zr3274   2.470       .  S
O3256      C3257   1.293       .  A
C3257      C3404   1.496       .  S
O3258     Zr3270   2.518       .  S
O3258      C3260   1.303       .  A
O3259     Zr3273   2.475       .  S
O3259      C3260   1.296       .  A
C3260      C3376   1.529       .  S
O3261     Zr3270   2.463       .  S
O3261      C3263   1.295       .  A
O3262     Zr3274   2.404       .  S
O3262      C3263   1.281       .  A
O3264     Zr3267   2.365       .  S
O3264      C3266   1.273       .  A
O3265     Zr3273   2.473       .  S
O3265      C3266   1.300       .  A
C3266      C3319   1.457       .  S
Zr3267     O3275   2.353       .  S
Zr3267     O3276   2.379       .  S
Zr3267     O3279   2.390       .  S
Zr3267     O3277   2.350       .  S
Zr3267     O3268   2.436       .  S
Zr3267     O3269   2.432       .  S
O3268      H3288   0.989       .  S
O3268      H3293   0.990       .  S
O3269      H3289   0.990       .  S
Zr3270     O3276   2.358       .  S
Zr3270     O3275   2.388       .  S
Zr3270     O3280   2.388       .  S
Zr3270     O3278   2.363       .  S
Zr3270     O3271   2.434       .  S
Zr3270     O3272   2.433       .  S
O3271      H3287   0.990       .  S
O3272      H3286   0.990       .  S
O3272      H3296   0.990       .  S
Zr3273     O3276   2.386       .  S
Zr3273     O3278   2.416       .  S
Zr3273     O3279   2.384       .  S
Zr3274     O3275   2.397       .  S
Zr3274     O3277   2.387       .  S
Zr3274     O3280   2.394       .  S
O3275      H3283   0.966       .  S
O3278      H3282   0.966       .  S
O3279      H3284   0.966       .  S
O3297     Zr3309   2.354       .  S
O3297      C3299   1.271       .  A
O3298     Zr3335   2.404       .  S
O3298      C3299   1.287       .  A
O3300     Zr3312   2.368       .  S
O3300      C3302   1.274       .  A
O3301     Zr3336   2.449       .  S
O3301      C3302   1.295       .  A
O3303     Zr3312   2.460       .  S
O3303      C3305   1.290       .  A
O3304     Zr3335   2.467       .  S
O3304      C3305   1.294       .  A
C3305      C3785   1.502       .  S
O3306     Zr3309   2.439       .  S
O3306      C3308   1.286       .  A
O3307     Zr3336   2.494       .  S
O3307      C3308   1.300       .  A
C3308      C3463   1.504       .  S
Zr3309     O3315   2.383       .  S
Zr3309     O3316   2.330       .  S
Zr3309     O3339   2.353       .  S
Zr3309     O3341   2.387       .  S
Zr3309     O3310   2.434       .  S
Zr3309     O3311   2.428       .  S
O3310      H3353   0.990       .  S
O3311      H3352   0.990       .  S
O3311      H3356   0.990       .  S
Zr3312     O3316   2.379       .  S
Zr3312     O3315   2.347       .  S
Zr3312     O3340   2.328       .  S
Zr3312     O3342   2.400       .  S
Zr3312     O3313   2.438       .  S
Zr3312     O3314   2.435       .  S
O3313      H3354   0.990       .  S
O3313      H3357   0.990       .  S
O3314      H3347   0.990       .  S
O3315     Zr3335   2.384       .  S
O3316     Zr3336   2.384       .  S
O3316      H3343   0.965       .  S
O3317     Zr3329   2.371       .  S
O3317      C3319   1.273       .  A
O3318     Zr3336   2.474       .  S
O3318      C3319   1.301       .  A
O3320     Zr3332   2.455       .  S
O3320      C3322   1.296       .  A
O3321     Zr3335   2.422       .  S
O3321      C3322   1.285       .  A
O3323     Zr3332   2.501       .  S
O3323      C3325   1.296       .  A
O3324     Zr3336   2.460       .  S
O3324      C3325   1.293       .  A
C3325      C3516   1.521       .  S
O3326     Zr3329   2.424       .  S
O3326      C3328   1.283       .  A
O3327     Zr3335   2.512       .  S
O3327      C3328   1.302       .  A
C3328      C3572   1.527       .  S
Zr3329     O3337   2.375       .  S
Zr3329     O3338   2.359       .  S
Zr3329     O3341   2.346       .  S
Zr3329     O3339   2.390       .  S
Zr3329     O3330   2.439       .  S
Zr3329     O3331   2.433       .  S
O3330      H3350   0.990       .  S
O3330      H3355   0.990       .  S
O3331      H3351   0.990       .  S
Zr3332     O3338   2.377       .  S
Zr3332     O3337   2.341       .  S
Zr3332     O3342   2.374       .  S
Zr3332     O3340   2.397       .  S
Zr3332     O3333   2.435       .  S
Zr3332     O3334   2.438       .  S
O3333      H3349   0.990       .  S
O3334      H3348   0.991       .  S
O3334      H3358   0.990       .  S
Zr3335     O3338   2.392       .  S
Zr3335     O3340   2.406       .  S
Zr3335     O3341   2.395       .  S
Zr3336     O3337   2.392       .  S
Zr3336     O3339   2.385       .  S
Zr3336     O3342   2.410       .  S
O3337      H3345   0.966       .  S
O3340      H3344   0.965       .  S
O3341      H3346   0.966       .  S
C3359      C3379   1.628       .  S
C3359      C3631   1.619       .  S
C3359      C3642   1.569       .  S
C3359      C3743   1.617       .  S
C3360      C3365   1.607       .  S
C3360      C3603   1.594       .  S
C3360      C3659   1.573       .  S
C3360      C3715   1.576       .  S
C3361      C3362   1.408       .  A
C3361      C3366   1.426       .  A
C3361      H3368   1.084       .  S
C3362      C3363   1.409       .  A
C3363      C3364   1.409       .  A
C3363      N3370   1.441       .  S
C3364      C3365   1.425       .  A
C3364      H3369   1.077       .  S
C3365      C3366   1.436       .  A
C3366      N3367   1.432       .  S
N3367      O3371   1.262       .  A
N3367      O3372   1.263       .  A
N3370      O3373   1.263       .  A
N3370      O3374   1.263       .  A
C3375      C3376   1.397       .  A
C3375      C3380   1.416       .  A
C3375      H3382   1.085       .  S
C3376      C3377   1.425       .  A
C3377      C3378   1.439       .  A
C3377      N3384   1.444       .  S
C3378      C3379   1.429       .  A
C3378      H3383   1.071       .  S
C3379      C3380   1.447       .  A
C3380      N3381   1.426       .  S
N3381      O3385   1.262       .  A
N3381      O3386   1.260       .  A
N3384      O3387   1.263       .  A
N3384      O3388   1.263       .  A
C3389      C3390   1.404       .  A
C3389      C3394   1.416       .  A
C3389      H3396   1.084       .  S
C3390      C3391   1.417       .  A
C3391      C3392   1.426       .  A
C3391      N3398   1.431       .  S
C3392      C3393   1.422       .  A
C3392      H3397   1.079       .  S
C3393      C3394   1.436       .  A
C3394      N3395   1.432       .  S
N3395      O3399   1.262       .  A
N3395      O3400   1.262       .  A
N3398      O3401   1.260       .  A
N3398      O3402   1.261       .  A
C3403      C3404   1.403       .  A
C3403      C3408   1.418       .  A
C3403      H3410   1.084       .  S
C3404      C3405   1.413       .  A
C3405      C3406   1.403       .  A
C3405      N3412   1.439       .  S
C3406      C3407   1.419       .  A
C3406      H3411   1.083       .  S
C3407      C3408   1.437       .  A
C3408      N3409   1.433       .  S
N3409      O3413   1.262       .  A
N3409      O3414   1.261       .  A
N3412      O3415   1.262       .  A
N3412      O3416   1.263       .  A
C3417      C3418   1.410       .  A
C3417      C3422   1.405       .  A
C3417      H3424   1.084       .  S
C3418      C3419   1.409       .  A
C3419      C3420   1.414       .  A
C3419      N3426   1.433       .  S
C3420      C3421   1.427       .  A
C3420      H3425   1.080       .  S
C3421      C3422   1.437       .  A
C3422      N3423   1.447       .  S
N3423      O3427   1.263       .  A
N3423      O3428   1.262       .  A
N3426      O3429   1.261       .  A
N3426      O3430   1.262       .  A
C3431      C3432   1.439       .  A
C3431      H3438   1.082       .  S
C3432      C3433   1.453       .  A
C3433      C3434   1.393       .  A
C3433      N3440   1.429       .  S
C3434      C3435   1.393       .  A
C3434      H3439   1.085       .  S
C3436      N3437   1.440       .  S
N3437      O3441   1.262       .  A
N3437      O3442   1.261       .  A
N3440      O3443   1.264       .  A
N3440      O3444   1.262       .  A
C3445      C3446   1.396       .  A
C3445      C3450   1.412       .  A
C3445      H3452   1.084       .  S
C3447      N3454   1.444       .  S
C3448      C3449   1.428       .  A
C3449      C3450   1.434       .  A
C3450      N3451   1.432       .  S
N3451      O3455   1.260       .  A
N3451      O3456   1.264       .  A
N3454      O3457   1.262       .  A
N3454      O3458   1.263       .  A
C3459      C3460   1.428       .  A
C3459      C3464   1.421       .  A
C3459      H3466   1.067       .  S
C3460      C3461   1.465       .  A
C3461      C3462   1.416       .  A
C3461      N3468   1.437       .  S
C3462      C3463   1.389       .  A
C3462      H3467   1.085       .  S
C3463      C3464   1.411       .  A
C3464      N3465   1.441       .  S
N3465      O3469   1.262       .  A
N3465      O3470   1.262       .  A
N3468      O3471   1.263       .  A
N3468      O3472   1.259       .  A
C3473      C3474   1.420       .  A
C3473      C3478   1.399       .  A
C3473      H3480   1.073       .  S
C3474      C3475   1.428       .  A
C3475      C3476   1.413       .  A
C3475      N3482   1.431       .  S
C3476      C3477   1.407       .  A
C3476      H3481   1.084       .  S
C3477      C3478   1.411       .  A
C3478      N3479   1.452       .  S
N3479      O3483   1.263       .  A
N3479      O3484   1.261       .  A
N3482      O3485   1.260       .  A
N3482      O3486   1.261       .  A
C3487      C3488   1.415       .  A
C3487      C3492   1.404       .  A
C3487      H3494   1.075       .  S
C3488      C3489   1.441       .  A
C3490      H3495   1.084       .  S
C3491      C3492   1.414       .  A
C3492      N3493   1.434       .  S
N3493      O3497   1.263       .  A
N3493      O3498   1.260       .  A
N3496      O3499   1.260       .  A
N3496      O3500   1.262       .  A
C3501      H3508   1.084       .  S
C3502      C3503   1.406       .  A
C3503      C3504   1.405       .  A
C3503      N3510   1.441       .  S
C3504      C3505   1.429       .  A
C3504      H3509   1.074       .  S
C3505      C3506   1.435       .  A
N3507      O3511   1.261       .  A
N3510      O3513   1.261       .  A
N3510      O3514   1.263       .  A
C3515      C3516   1.405       .  A
C3515      C3520   1.419       .  A
C3515      H3522   1.084       .  S
C3516      C3517   1.418       .  A
C3517      C3518   1.422       .  A
C3517      N3524   1.439       .  S
C3518      C3519   1.426       .  A
C3518      H3523   1.076       .  S
C3519      C3520   1.439       .  A
C3520      N3521   1.436       .  S
N3521      O3525   1.261       .  A
N3521      O3526   1.263       .  A
N3524      O3527   1.261       .  A
N3524      O3528   1.263       .  A
C3529      C3530   1.428       .  A
C3529      C3534   1.430       .  A
C3529      H3536   1.079       .  S
C3530      C3531   1.436       .  A
C3531      C3532   1.396       .  A
C3531      N3538   1.427       .  S
C3532      C3533   1.393       .  A
C3532      H3537   1.086       .  S
C3533      C3534   1.419       .  A
C3534      N3535   1.442       .  S
N3535      O3539   1.259       .  A
N3535      O3540   1.260       .  A
N3538      O3541   1.262       .  A
N3538      O3542   1.263       .  A
C3543      C3544   1.401       .  A
C3543      C3548   1.412       .  A
C3543      H3550   1.084       .  S
C3544      C3545   1.400       .  A
C3545      C3546   1.389       .  A
C3545      N3552   1.441       .  S
C3546      C3547   1.422       .  A
C3546      H3551   1.081       .  S
C3547      C3548   1.433       .  A
C3548      N3549   1.433       .  S
N3549      O3553   1.260       .  A
N3549      O3554   1.260       .  A
N3552      O3555   1.263       .  A
N3552      O3556   1.261       .  A
C3557      C3558   1.390       .  A
C3557      C3562   1.407       .  A
C3557      H3564   1.085   1_556  S
C3558      C3559   1.422       .  A
C3559      C3560   1.418       .  A
C3559      N3566   1.443       .  S
C3560      C3561   1.415       .  A
C3560      H3565   1.083       .  S
C3561      C3562   1.453       .  A
C3562      N3563   1.437       .  S
N3563      O3567   1.263   1_556  A
N3563      O3568   1.261       .  A
N3566      O3569   1.262       .  A
N3566      O3570   1.263       .  A
C3571      C3572   1.406       .  A
C3571      C3576   1.428       .  A
C3571      H3578   1.083       .  S
C3572      C3573   1.423       .  A
C3573      C3574   1.405       .  A
C3573      N3580   1.433       .  S
C3574      C3575   1.414       .  A
C3574      H3579   1.079       .  S
C3575      C3576   1.441       .  A
C3576      N3577   1.432       .  S
N3577      O3581   1.261       .  A
N3577      O3582   1.262       .  A
N3580      O3583   1.261       .  A
N3580      O3584   1.263       .  A
C3585      C3586   1.403       .  A
C3585      C3590   1.398       .  A
C3585      H3592   1.085       .  S
C3586      C3587   1.413       .  A
C3587      C3588   1.421       .  A
C3587      N3594   1.432       .  S
C3588      C3589   1.419       .  A
C3588      H3593   1.076       .  S
C3589      C3590   1.434       .  A
C3590      N3591   1.433       .  S
N3591      O3595   1.262       .  A
N3591      O3596   1.262       .  A
N3594      O3597   1.259       .  A
N3594      O3598   1.262       .  A
C3599      C3600   1.405   1_554  A
C3599      C3604   1.413       .  A
C3599      H3606   1.082       .  S
C3601      C3602   1.405   1_556  A
C3601      N3608   1.440       .  S
C3602      C3603   1.432       .  A
C3602      H3607   1.069   1_554  S
C3604      N3605   1.435       .  S
N3605      O3609   1.261       .  A
N3605      O3610   1.261       .  A
N3608      O3611   1.262       .  A
N3608      O3612   1.262       .  A
C3613      C3614   1.424       .  A
C3613      C3618   1.414       .  A
C3613      H3620   1.079       .  S
C3614      C3615   1.444       .  A
C3615      C3616   1.411   1_554  A
C3615      N3622   1.418   1_554  S
C3616      C3617   1.389       .  A
C3616      H3621   1.085       .  S
C3617      C3618   1.411   1_556  A
C3618      N3619   1.435       .  S
N3619      O3623   1.260       .  A
N3619      O3624   1.256       .  A
N3622      O3625   1.261   1_556  A
N3622      O3626   1.263       .  A
C3627      C3632   1.411       .  A
C3627      H3634   1.084       .  S
C3628      C3629   1.412       .  A
C3629      C3630   1.418   1_565  A
C3629      N3636   1.424       .  S
C3630      H3635   1.083   1_545  S
C3631      C3632   1.470       .  A
C3632      N3633   1.440       .  S
N3633      O3637   1.264       .  A
N3633      O3638   1.258       .  A
N3636      O3639   1.262       .  A
N3636      O3640   1.262       .  A
C3641      C3642   1.418       .  A
C3641      C3646   1.403       .  A
C3641      H3648   1.078       .  S
C3642      C3643   1.443       .  A
C3643      C3644   1.411       .  A
C3643      N3650   1.443       .  S
C3644      C3645   1.398       .  A
C3644      H3649   1.084       .  S
C3645      C3646   1.410       .  A
C3646      N3647   1.435       .  S
N3647      O3651   1.262       .  A
N3647      O3652   1.262       .  A
N3650      O3653   1.264       .  A
N3650      O3654   1.259       .  A
C3655      C3656   1.392       .  A
C3655      C3660   1.401   1_655  A
C3655      H3662   1.084       .  S
C3657      C3658   1.399       .  A
C3657      N3664   1.432   1_554  S
C3658      C3659   1.415       .  A
C3658      H3663   1.084       .  S
C3660      N3661   1.434   1_455  S
N3661      O3665   1.261       .  A
N3661      O3666   1.263       .  A
N3664      O3667   1.262       .  A
N3664      O3668   1.261       .  A
C3669      C3670   1.391       .  A
C3669      C3674   1.401       .  A
C3669      H3676   1.084   1_554  S
C3670      C3671   1.406       .  A
C3671      C3672   1.406       .  A
C3671      N3678   1.441       .  S
C3672      C3673   1.425       .  A
C3672      H3677   1.076       .  S
C3673      C3674   1.437       .  A
C3674      N3675   1.444       .  S
N3675      O3679   1.264       .  A
N3675      O3680   1.258       .  A
N3678      O3681   1.262       .  A
N3678      O3682   1.263       .  A
C3683      C3688   1.383       .  A
C3683      H3690   1.083       .  S
C3684      C3685   1.420       .  A
C3685      C3686   1.425   1_655  A
C3685      N3692   1.436       .  S
C3686      H3691   1.082       .  S
C3687      C3688   1.443       .  A
C3688      N3689   1.432       .  S
N3689      O3693   1.264       .  A
N3689      O3694   1.262       .  A
N3692      O3695   1.262       .  A
N3692      O3696   1.262       .  A
C3697      C3698   1.427       .  A
C3697      C3702   1.423       .  A
C3697      H3704   1.084       .  S
C3698      C3699   1.432       .  A
C3699      C3700   1.406       .  A
C3699      N3706   1.435       .  S
C3700      C3701   1.409       .  A
C3700      H3705   1.083       .  S
C3701      C3702   1.419       .  A
C3702      N3703   1.433       .  S
N3703      O3707   1.262       .  A
N3703      O3708   1.262       .  A
N3706      O3709   1.263       .  A
N3706      O3710   1.261       .  A
C3711      C3712   1.405   1_655  A
C3713      C3714   1.391       .  A
C3713      N3720   1.432       .  S
C3714      H3719   1.075       .  S
C3716      N3717   1.437   1_545  S
N3717      O3721   1.262       .  A
N3717      O3722   1.261   1_565  A
N3720      O3723   1.262       .  A
N3720      O3724   1.262       .  A
C3725      C3726   1.406       .  A
C3725      H3732   1.083       .  S
C3726      C3727   1.422   1_655  A
C3727      C3728   1.399       .  A
C3727      N3734   1.433       .  S
C3728      H3733   1.078       .  S
C3729      C3730   1.442       .  A
C3730      N3731   1.431       .  S
N3731      O3735   1.262       .  A
N3731      O3736   1.261       .  A
N3734      O3737   1.263       .  A
N3734      O3738   1.262   1_455  A
C3739      C3740   1.406       .  A
C3739      H3746   1.083       .  S
C3741      C3742   1.406       .  A
C3742      C3743   1.426       .  A
C3742      H3747   1.075       .  S
C3743      C3744   1.441       .  A
C3744      N3745   1.428       .  S
N3745      O3749   1.261       .  A
N3745      O3750   1.263       .  A
N3748      O3751   1.262       .  A
C3753      C3754   1.409       .  A
C3753      C3758   1.399       .  A
C3753      H3760   1.080       .  S
C3754      C3755   1.444       .  A
C3756      H3761   1.084       .  S
C3757      C3758   1.423       .  A
C3758      N3759   1.439       .  S
N3759      O3763   1.263       .  A
N3759      O3764   1.262   1_556  A
N3762      O3765   1.261       .  A
N3762      O3766   1.262       .  A
C3767      C3768   1.414       .  A
C3768      C3769   1.429       .  A
C3769      C3770   1.392       .  A
C3769      N3776   1.432       .  S
C3771      C3772   1.412       .  A
C3772      N3773   1.442       .  S
N3773      O3777   1.262       .  A
N3773      O3778   1.260       .  A
N3776      O3779   1.262       .  A
C3781      C3782   1.421       .  A
C3781      C3786   1.415       .  A
C3781      H3788   1.078       .  S
C3782      C3783   1.431       .  A
C3783      C3784   1.413       .  A
C3783      N3790   1.431       .  S
C3784      C3785   1.403       .  A
C3784      H3789   1.084       .  S
C3785      C3786   1.417       .  A
C3786      N3787   1.442       .  S
N3787      O3791   1.263       .  A
N3787      O3792   1.259       .  A
N3790      O3793   1.262       .  A
N3790      O3794   1.262       .  A
C3795      C3796   1.419       .  A
C3795      C3800   1.394       .  A
C3795      H3802   1.079       .  S
C3796      C3797   1.447       .  A
C3797      N3804   1.438       .  S
C3798      H3803   1.085       .  S
C3799      C3800   1.401       .  A
C3800      N3801   1.441       .  S
N3801      O3805   1.263       .  A
N3801      O3806   1.262       .  A
N3804      O3808   1.263   1_655  A
