geometry optimzed in LAMMPS
_audit_creation_date              2020-11-30 
_audit_creation_method            'lammps2cif' 
_symmetry_space_group_name_H-M    'P1' 
_symmetry_Int_Tables_number       1 
_symmetry_cell_setting            triclinic 
loop_ 
_symmetry_equiv_pos_as_xyz 
  x,y,z 
_cell_length_a                    26.90888165 
_cell_length_b                    45.59796318990253 
_cell_length_c                    37.370572910077904 
_cell_angle_alpha                 89.99988318695361 
_cell_angle_beta                  90.00000645468381 
_cell_angle_gamma                 90.00119409235559 
loop_ 
_atom_site_label 
_atom_site_type_symbol 
_atom_site_fract_x 
_atom_site_fract_y 
_atom_site_fract_z 
_atom_site_charge 
O1          O  0.00186063  0.04401933  0.02973841    -0.71600
O2          O  0.00185810  0.45597627  0.02973867    -0.72600
O3          O  0.07440420  0.50098946  0.02972410    -0.61200
O4          O  0.42559590  0.00098945  0.02972384    -0.69700
O5          O  0.42559570  0.00098937  0.47026092    -0.69200
O6          O  0.07440466  0.50098954  0.47026120    -0.60500
O7          O  0.50185850  0.45597657  0.47024543    -0.73000
O8          O  0.50186076  0.04401898  0.47024514    -0.71800
Cu9        Cu  0.99999984  0.49999771  0.03183444     1.04600
Cu10       Cu  0.50000033  0.99999786  0.46814991     1.04300
C11         C  0.00258841  0.05778272  0.99999159     0.94600
C12         C  0.50258574  0.44221287  0.49999194     0.93700
C13         C  0.09781195  0.99883410  0.99999274     0.85800
C14         C  0.40218814  0.49883377  0.99999252     0.92100
O15         O  0.00186362  0.45597541  0.27973878    -0.71600
O16         O  0.00186619  0.04401814  0.27973838    -0.72600
O17         O  0.42560127  0.49900553  0.27972389    -0.61200
O18         O  0.07440984  0.50098883  0.27972388    -0.69700
O19         O  0.07441020  0.50098876  0.22026103    -0.69200
O20         O  0.42560089  0.49900548  0.22026103    -0.60500
O21         O  0.00186615  0.04401778  0.22024513    -0.73000
O22         O  0.00186358  0.45597570  0.22024555    -0.71800
Cu23       Cu  0.00000548  0.49999689  0.28183436     1.04600
Cu24       Cu  0.00000551  0.49999691  0.21814998     1.04300
C25         C  0.00259060  0.44221198  0.24999206     0.94600
C26         C  0.00259351  0.05778150  0.24999154     0.93700
C27         C  0.40219367  0.49883343  0.24999258     0.85800
C28         C  0.09781745  0.50116189  0.24999256     0.92100
O29         O  0.32440466  0.49900716  0.02972444    -0.71600
O30         O  0.17559551  0.50099013  0.02972470    -0.72600
O31         O  0.24813958  0.45597774  0.02974042    -0.61200
O32         O  0.24814249  0.04401977  0.02974026    -0.69700
O33         O  0.24814214  0.04402014  0.47024703    -0.69200
O34         O  0.24813930  0.45597740  0.47024719    -0.60500
O35         O  0.17559576  0.50099022  0.47026177    -0.73000
O36         O  0.32440420  0.49900719  0.47026158    -0.71800
Cu37       Cu  0.25000014  0.49999879  0.03183555     1.04600
Cu38       Cu  0.24999995  0.49999878  0.46815121     1.04300
C39         C  0.34781186  0.49883431  0.49999285     0.94600
C40         C  0.15218824  0.50116262  0.49999310     0.93700
C41         C  0.24741217  0.44221397  0.49999399     0.85800
C42         C  0.24741539  0.05778353  0.49999380     0.92100
O43         O  0.24814478  0.45597866  0.27974038    -0.71600
O44         O  0.24814772  0.04402103  0.27974005    -0.72600
O45         O  0.17560110  0.99900801  0.27972450    -0.61200
O46         O  0.32441035  0.00099106  0.27972441    -0.69700
O47         O  0.32441003  0.00099113  0.22026156    -0.69200
O48         O  0.17560146  0.99900787  0.22026163    -0.60500
O49         O  0.24814765  0.04402130  0.22024682    -0.73000
O50         O  0.24814486  0.45597829  0.22024712    -0.71800
Cu51       Cu  0.25000567  0.99999985  0.28183545     1.04600
Cu52       Cu  0.25000571  0.49999961  0.21815105     1.04300
C53         C  0.24741711  0.44221495  0.24999395     0.94600
C54         C  0.24742041  0.05778474  0.24999356     0.93700
C55         C  0.15219389  0.99883485  0.24999294     0.85800
C56         C  0.34781762  0.00116307  0.24999288     0.92100
O57         O  0.46390428  0.39566390  0.49999122    -0.71600
O58         O  0.46898812  0.30768334  0.49998994    -0.72600
O59         O  0.46650061  0.35167668  0.05370644    -0.61200
O60         O  0.46649995  0.35167752  0.44627458    -0.69700
O61         O  0.04907695  0.35326528  0.44628269    -0.69200
O62         O  0.04907759  0.35326442  0.05369787    -0.60500
O63         O  0.05156253  0.30920333  0.49998967    -0.73000
O64         O  0.04648496  0.39728858  0.49999096    -0.71800
Cu65       Cu  0.46356981  0.35161544  0.49999050     1.04600
Cu66       Cu  0.05196647  0.35331622  0.49999023     1.04300
C67         C  0.00440630  0.41023850  0.49999150     0.94600
C68         C  0.01099565  0.29468472  0.49998961     0.93700
C69         C  0.00779394  0.35247386  0.07048524     0.85800
C70         C  0.00779315  0.35247458  0.42949554     0.92100
O71         O  0.46390667  0.39566373  0.24999107    -0.71600
O72         O  0.46898508  0.30768303  0.24998971    -0.72600
O73         O  0.46649974  0.35167642  0.30370621    -0.61200
O74         O  0.46650004  0.35167746  0.19627436    -0.69700
O75         O  0.04907713  0.35326358  0.19628296    -0.69200
O76         O  0.04907684  0.35326250  0.30369802    -0.60500
O77         O  0.05155957  0.30920146  0.24998978    -0.73000
O78         O  0.04648741  0.39728683  0.24999135    -0.71800
Cu79       Cu  0.46356941  0.35161525  0.24999030     1.04600
Cu80       Cu  0.05196612  0.35331437  0.24999054     1.04300
C81         C  0.00440946  0.41023755  0.24999162     0.94600
C82         C  0.01099190  0.29468361  0.24998948     0.93700
C83         C  0.00779301  0.35247279  0.32048521     0.85800
C84         C  0.00779348  0.35247390  0.17949555     0.92100
O85         O  0.28102048  0.30768616  0.49999662    -0.71600
O86         O  0.28609666  0.39566699  0.49999529    -0.72600
O87         O  0.28350481  0.35168055  0.05371182    -0.61200
O88         O  0.28350516  0.35167988  0.44628014    -0.69700
O89         O  0.20092805  0.35326371  0.44628822    -0.69200
O90         O  0.20092769  0.35326437  0.05370353    -0.60500
O91         O  0.20351584  0.39728766  0.49999502    -0.73000
O92         O  0.19844598  0.30920239  0.49999636    -0.71800
Cu93       Cu  0.28643536  0.35161857  0.49999605     1.04600
Cu94       Cu  0.19803852  0.35331514  0.49999579     1.04300
C95         C  0.23901370  0.29468564  0.49999659     0.94600
C96         C  0.24559358  0.41023958  0.49999464     0.93700
C97         C  0.24221152  0.35247586  0.07049078     0.85800
C98         C  0.24221195  0.35247524  0.42950107     0.92100
O99         O  0.28350549  0.35168026  0.19627998    -0.71600
O100        O  0.28350554  0.35168102  0.30371179    -0.72600
O101        O  0.28101922  0.30768671  0.24999667    -0.61200
O102        O  0.28609956  0.39566740  0.24999508    -0.69700
O103        O  0.20351879  0.39728941  0.24999508    -0.69200
O104        O  0.19844477  0.30920418  0.24999667    -0.60500
O105        O  0.20092848  0.35326620  0.30370345    -0.73000
O106        O  0.20092843  0.35326544  0.19628839    -0.71800
Cu107      Cu  0.28643606  0.35161900  0.24999590     1.04600
Cu108      Cu  0.19803923  0.35331703  0.24999590     1.04300
C109        C  0.24221214  0.35247610  0.17950109     0.94600
C110        C  0.24221224  0.35247689  0.32049072     0.93700
C111        C  0.23901190  0.29468681  0.24999692     0.85800
C112        C  0.24559715  0.41024062  0.24999461     0.92100
O113        O  0.05156198  0.19079340  0.49998891    -0.71600
O114        O  0.04648705  0.10270820  0.49999048    -0.72600
O115        O  0.04907740  0.14673141  0.44628197    -0.61200
O116        O  0.04907803  0.14673213  0.05369711    -0.69700
O117        O  0.46650097  0.14831752  0.05370564    -0.69200
O118        O  0.46650033  0.14831682  0.44627381    -0.60500
O119        O  0.46390629  0.10433043  0.49999047    -0.73000
O120        O  0.46898755  0.19231120  0.49998911    -0.71800
Cu121      Cu  0.05196700  0.14668059  0.49998962     1.04600
Cu122      Cu  0.46357017  0.14837887  0.49998969     1.04300
C123        C  0.01099503  0.20531094  0.49998888     0.94600
C124        C  0.00440859  0.08975708  0.49999095     0.93700
C125        C  0.00779354  0.14752068  0.42949479     0.85800
C126        C  0.00779434  0.14752143  0.07048447     0.92100
O127        O  0.46898466  0.19230919  0.24998894    -0.71600
O128        O  0.46390884  0.10432837  0.24999027    -0.72600
O129        O  0.46650021  0.14831552  0.30370540    -0.61200
O130        O  0.46650063  0.14831483  0.19627363    -0.69700
O131        O  0.04907776  0.14673104  0.19628220    -0.69200
O132        O  0.04907734  0.14673175  0.30369735    -0.60500
O133        O  0.04648970  0.10270780  0.24999054    -0.73000
O134        O  0.05155917  0.19079304  0.24998920    -0.71800
Cu135      Cu  0.46357007  0.14837671  0.24998950     1.04600
Cu136      Cu  0.05196694  0.14668028  0.24998978     1.04300
C137        C  0.01099141  0.20530977  0.24998898     0.94600
C138        C  0.00441199  0.08975584  0.24999087     0.93700
C139        C  0.00779346  0.14752039  0.32048448     0.85800
C140        C  0.00779406  0.14751978  0.17949482     0.92100
O141        O  0.19844612  0.19079387  0.49999587    -0.71600
O142        O  0.20351854  0.10270861  0.49999483    -0.72600
O143        O  0.20092898  0.14673208  0.05370303    -0.61200
O144        O  0.20092871  0.14673273  0.44628796    -0.69700
O145        O  0.28350579  0.14831898  0.44627946    -0.69200
O146        O  0.28350609  0.14831837  0.05371126    -0.60500
O147        O  0.28609930  0.10433177  0.49999475    -0.73000
O148        O  0.28102057  0.19231249  0.49999579    -0.71800
Cu149      Cu  0.19803975  0.14668103  0.49999550     1.04600
Cu150      Cu  0.28643642  0.14838024  0.49999529     1.04300
C151        C  0.23901367  0.20531182  0.49999601     0.94600
C152        C  0.24559648  0.08975794  0.49999435     0.93700
C153        C  0.24221282  0.14752209  0.07049024     0.85800
C154        C  0.24221242  0.14752263  0.42950062     0.92100
O155        O  0.20092923  0.14673216  0.30370291    -0.71600
O156        O  0.20092952  0.14673359  0.19628783    -0.72600
O157        O  0.20352140  0.10270913  0.24999450    -0.61200
O158        O  0.19844453  0.19079449  0.24999617    -0.69700
O159        O  0.28101896  0.19231430  0.24999621    -0.69200
O160        O  0.28610212  0.10433367  0.24999462    -0.60500
O161        O  0.28350657  0.14832096  0.19627953    -0.73000
O162        O  0.28350626  0.14831988  0.30371147    -0.71800
Cu163      Cu  0.19804018  0.14668158  0.24999536     1.04600
Cu164      Cu  0.28643705  0.14838216  0.24999554     1.04300
C165        C  0.24221290  0.14752260  0.32049028     0.94600
C166        C  0.24221328  0.14752394  0.17950058     0.93700
C167        C  0.24560003  0.08975914  0.24999406     0.85800
C168        C  0.23901153  0.20531303  0.24999643     0.92100
C169        C  0.24220093  0.14751956  0.39112206    -0.12000
C170        C  0.24220121  0.14751944  0.35886885    -0.13500
C171        C  0.24220172  0.14752042  0.14112201    -0.12000
C172        C  0.24220151  0.14751965  0.10886880    -0.13500
C173        C  0.00780478  0.14751742  0.39111625    -0.12000
C174        C  0.00780471  0.14751742  0.35886304    -0.13500
C175        C  0.00780576  0.14751717  0.14111626    -0.12000
C176        C  0.00780589  0.14751785  0.10886304    -0.13500
C177        C  0.23752147  0.26322322  0.24999721    -0.12000
C178        C  0.23752104  0.23677658  0.24999698    -0.13500
C179        C  0.23752432  0.23677539  0.49999638    -0.12000
C180        C  0.23752452  0.26322203  0.49999661    -0.13500
C181        C  0.24220077  0.35247956  0.35886928    -0.12000
C182        C  0.24220072  0.35247887  0.39112249    -0.13500
C183        C  0.24220049  0.35247908  0.14112254    -0.12000
C184        C  0.24220022  0.35247908  0.10886934    -0.13500
C185        C  0.01248062  0.23677338  0.24998889    -0.12000
C186        C  0.01248102  0.26322003  0.24998900    -0.13500
C187        C  0.01248586  0.23677452  0.49998885    -0.12000
C188        C  0.01248632  0.26322118  0.49998914    -0.13500
C189        C  0.00780443  0.35247630  0.35886376    -0.12000
C190        C  0.00780448  0.35247708  0.39111698    -0.13500
C191        C  0.00780554  0.35247693  0.10886378    -0.12000
C192        C  0.00780525  0.35247705  0.14111699    -0.13500
O193        O  0.00186070  0.04401932  0.52973839    -0.71600
O194        O  0.00185812  0.45597630  0.52973864    -0.72600
O195        O  0.07440416  0.50098947  0.52972403    -0.61200
O196        O  0.42559599  0.00098948  0.52972378    -0.69700
O197        O  0.42559567  0.00098942  0.97026098    -0.69200
O198        O  0.07440469  0.50098943  0.97026124    -0.60500
O199        O  0.50185823  0.45597661  0.97024543    -0.73000
O200        O  0.50186075  0.04401900  0.97024517    -0.71800
Cu201      Cu  0.99999988  0.49999775  0.53183431     1.04600
Cu202      Cu  0.50000020  0.99999790  0.96815000     1.04300
C203        C  0.00258842  0.05778271  0.49999158     0.94600
C204        C  0.50258571  0.44221289  0.99999191     0.93700
C205        C  0.09781197  0.99883408  0.49999274     0.85800
C206        C  0.40218817  0.49883375  0.49999249     0.92100
O207        O  0.00186370  0.45597544  0.77973874    -0.71600
O208        O  0.00186622  0.04401810  0.77973834    -0.72600
O209        O  0.42560134  0.49900558  0.77972393    -0.61200
O210        O  0.07440990  0.50098887  0.77972394    -0.69700
O211        O  0.07441016  0.50098876  0.72026109    -0.69200
O212        O  0.42560097  0.49900546  0.72026107    -0.60500
O213        O  0.00186617  0.04401775  0.72024509    -0.73000
O214        O  0.00186368  0.45597568  0.72024552    -0.71800
Cu215      Cu  0.00000556  0.49999693  0.78183443     1.04600
Cu216      Cu  0.00000552  0.49999683  0.71815005     1.04300
C217        C  0.00259070  0.44221197  0.74999203     0.94600
C218        C  0.00259348  0.05778146  0.74999152     0.93700
C219        C  0.40219374  0.49883346  0.74999261     0.85800
C220        C  0.09781745  0.50116193  0.74999260     0.92100
O221        O  0.32440472  0.49900711  0.52972444    -0.71600
O222        O  0.17559555  0.50099010  0.52972462    -0.72600
O223        O  0.24813970  0.45597763  0.52974043    -0.61200
O224        O  0.24814257  0.04401977  0.52974026    -0.69700
O225        O  0.24814224  0.04402016  0.97024706    -0.69200
O226        O  0.24813931  0.45597745  0.97024719    -0.60500
O227        O  0.17559583  0.50099028  0.97026186    -0.73000
O228        O  0.32440415  0.49900710  0.97026160    -0.71800
Cu229      Cu  0.25000021  0.49999868  0.53183560     1.04600
Cu230      Cu  0.24999998  0.49999880  0.96815128     1.04300
C231        C  0.34781181  0.49883429  0.99999289     0.94600
C232        C  0.15218823  0.50116265  0.99999319     0.93700
C233        C  0.24741210  0.44221404  0.99999399     0.85800
C234        C  0.24741538  0.05778355  0.99999381     0.92100
O235        O  0.24814485  0.45597869  0.77974034    -0.71600
O236        O  0.24814774  0.04402099  0.77974008    -0.72600
O237        O  0.17560119  0.99900795  0.77972450    -0.61200
O238        O  0.32441045  0.00099107  0.77972444    -0.69700
O239        O  0.32441008  0.00099101  0.72026159    -0.69200
O240        O  0.17560154  0.99900790  0.72026164    -0.60500
O241        O  0.24814771  0.04402127  0.72024687    -0.73000
O242        O  0.24814486  0.45597832  0.72024709    -0.71800
Cu243      Cu  0.25000575  0.99999977  0.78183550     1.04600
Cu244      Cu  0.25000555  0.49999965  0.71815113     1.04300
C245        C  0.24741719  0.44221496  0.74999393     0.94600
C246        C  0.24742040  0.05778472  0.74999358     0.93700
C247        C  0.15219396  0.99883481  0.74999297     0.85800
C248        C  0.34781770  0.00116305  0.74999290     0.92100
O249        O  0.46390431  0.39566394  0.99999113    -0.71600
O250        O  0.46898804  0.30768337  0.99999004    -0.72600
O251        O  0.46650053  0.35167669  0.55370639    -0.61200
O252        O  0.46649998  0.35167755  0.94627461    -0.69700
O253        O  0.04907702  0.35326531  0.94628272    -0.69200
O254        O  0.04907765  0.35326445  0.55369781    -0.60500
O255        O  0.05156245  0.30920336  0.99998977    -0.73000
O256        O  0.04648504  0.39728862  0.99999087    -0.71800
Cu257      Cu  0.46356964  0.35161547  0.99999056     1.04600
Cu258      Cu  0.05196652  0.35331625  0.99999029     1.04300
C259        C  0.00440635  0.41023853  0.99999138     0.94600
C260        C  0.01099553  0.29468476  0.99998971     0.93700
C261        C  0.00779402  0.35247385  0.57048519     0.85800
C262        C  0.00779321  0.35247462  0.92949556     0.92100
O263        O  0.46390667  0.39566373  0.74999101    -0.71600
O264        O  0.46898498  0.30768308  0.74998964    -0.72600
O265        O  0.46649971  0.35167646  0.80370623    -0.61200
O266        O  0.46650007  0.35167750  0.69627433    -0.69700
O267        O  0.04907722  0.35326354  0.69628295    -0.69200
O268        O  0.04907666  0.35326250  0.80369802    -0.60500
O269        O  0.05155949  0.30920144  0.74998990    -0.73000
O270        O  0.04648748  0.39728678  0.74999127    -0.71800
Cu271      Cu  0.46356922  0.35161528  0.74999032     1.04600
Cu272      Cu  0.05196614  0.35331428  0.74999057     1.04300
C273        C  0.00440954  0.41023754  0.74999157     0.94600
C274        C  0.01099177  0.29468363  0.74998953     0.93700
C275        C  0.00779284  0.35247283  0.82048522     0.85800
C276        C  0.00779355  0.35247389  0.67949554     0.92100
O277        O  0.28102054  0.30768620  0.99999647    -0.71600
O278        O  0.28609671  0.39566706  0.99999511    -0.72600
O279        O  0.28350485  0.35168057  0.55371192    -0.61200
O280        O  0.28350514  0.35167993  0.94628005    -0.69700
O281        O  0.20092801  0.35326375  0.94628833    -0.69200
O282        O  0.20092774  0.35326440  0.55370342    -0.60500
O283        O  0.20351589  0.39728769  0.99999511    -0.73000
O284        O  0.19844603  0.30920235  0.99999647    -0.71800
Cu285      Cu  0.28643542  0.35161861  0.99999590     1.04600
Cu286      Cu  0.19803857  0.35331515  0.99999589     1.04300
C287        C  0.23901380  0.29468563  0.99999662     0.94600
C288        C  0.24559360  0.41023964  0.99999462     0.93700
C289        C  0.24221149  0.35247590  0.57049078     0.85800
C290        C  0.24221183  0.35247528  0.92950110     0.92100
O291        O  0.28350522  0.35168016  0.69628009    -0.71600
O292        O  0.28350558  0.35168102  0.80371187    -0.72600
O293        O  0.28101903  0.30768665  0.74999656    -0.61200
O294        O  0.28609960  0.39566739  0.74999516    -0.69700
O295        O  0.20351887  0.39728942  0.74999515    -0.69200
O296        O  0.19844465  0.30920421  0.74999676    -0.60500
O297        O  0.20092857  0.35326621  0.80370355    -0.73000
O298        O  0.20092820  0.35326532  0.69628845    -0.71800
Cu299      Cu  0.28643584  0.35161899  0.74999597     1.04600
Cu300      Cu  0.19803927  0.35331704  0.74999600     1.04300
C301        C  0.24221191  0.35247597  0.67950116     0.94600
C302        C  0.24221231  0.35247686  0.82049081     0.93700
C303        C  0.23901171  0.29468678  0.74999682     0.85800
C304        C  0.24559722  0.41024064  0.74999464     0.92100
O305        O  0.05156209  0.19079344  0.99998895    -0.71600
O306        O  0.04648704  0.10270823  0.99999028    -0.72600
O307        O  0.04907739  0.14673147  0.94628194    -0.61200
O308        O  0.04907800  0.14673216  0.55369717    -0.69700
O309        O  0.46650105  0.14831754  0.55370557    -0.69200
O310        O  0.46650043  0.14831686  0.94627386    -0.60500
O311        O  0.46390638  0.10433047  0.99999054    -0.73000
O312        O  0.46898754  0.19231118  0.99998921    -0.71800
Cu313      Cu  0.05196707  0.14668062  0.99998951     1.04600
Cu314      Cu  0.46357023  0.14837889  0.99998978     1.04300
C315        C  0.01099510  0.20531094  0.99998898     0.94600
C316        C  0.00440860  0.08975711  0.99999091     0.93700
C317        C  0.00779354  0.14752073  0.92949480     0.85800
C318        C  0.00779427  0.14752147  0.57048448     0.92100
O319        O  0.46898470  0.19230924  0.74998905    -0.71600
O320        O  0.46390874  0.10432838  0.74999035    -0.72600
O321        O  0.46650001  0.14831556  0.80370546    -0.61200
O322        O  0.46650068  0.14831487  0.69627365    -0.69700
O323        O  0.04907776  0.14673109  0.69628221    -0.69200
O324        O  0.04907715  0.14673180  0.80369731    -0.60500
O325        O  0.04648967  0.10270780  0.74999063    -0.73000
O326        O  0.05155919  0.19079307  0.74998911    -0.71800
Cu327      Cu  0.46356986  0.14837676  0.74998958     1.04600
Cu328      Cu  0.05196672  0.14668032  0.74998983     1.04300
C329        C  0.01099145  0.20530981  0.74998896     0.94600
C330        C  0.00441197  0.08975584  0.74999091     0.93700
C331        C  0.00779329  0.14752044  0.82048448     0.85800
C332        C  0.00779405  0.14751977  0.67949484     0.92100
O333        O  0.19844601  0.19079392  0.99999587    -0.71600
O334        O  0.20351849  0.10270865  0.99999480    -0.72600
O335        O  0.20092907  0.14673211  0.55370312    -0.61200
O336        O  0.20092872  0.14673276  0.94628783    -0.69700
O337        O  0.28350585  0.14831883  0.94627948    -0.69200
O338        O  0.28350614  0.14831836  0.55371122    -0.60500
O339        O  0.28609929  0.10433180  0.99999484    -0.73000
O340        O  0.28102051  0.19231243  0.99999566    -0.71800
Cu341      Cu  0.19803954  0.14668106  0.99999539     1.04600
Cu342      Cu  0.28643646  0.14838024  0.99999535     1.04300
C343        C  0.23901364  0.20531181  0.99999595     0.94600
C344        C  0.24559648  0.08975797  0.99999437     0.93700
C345        C  0.24221293  0.14752212  0.57049028     0.85800
C346        C  0.24221251  0.14752250  0.92950057     0.92100
O347        O  0.20092917  0.14673216  0.80370296    -0.71600
O348        O  0.20092949  0.14673344  0.69628791    -0.72600
O349        O  0.20352145  0.10270912  0.74999443    -0.61200
O350        O  0.19844461  0.19079442  0.74999626    -0.69700
O351        O  0.28101905  0.19231429  0.74999625    -0.69200
O352        O  0.28610217  0.10433368  0.74999464    -0.60500
O353        O  0.28350655  0.14832103  0.69627957    -0.73000
O354        O  0.28350622  0.14831978  0.80371149    -0.71800
Cu355      Cu  0.19804022  0.14668148  0.74999543     1.04600
Cu356      Cu  0.28643712  0.14838217  0.74999549     1.04300
C357        C  0.24221282  0.14752259  0.82049031     0.94600
C358        C  0.24221324  0.14752393  0.67950064     0.93700
C359        C  0.24560007  0.08975914  0.74999406     0.85800
C360        C  0.23901159  0.20531298  0.74999653     0.92100
C361        C  0.24220103  0.14751942  0.89112204    -0.12000
C362        C  0.24220111  0.14751944  0.85886885    -0.13500
C363        C  0.24220176  0.14752046  0.64112208    -0.12000
C364        C  0.24220167  0.14751969  0.60886887    -0.13500
C365        C  0.00780478  0.14751746  0.89111623    -0.12000
C366        C  0.00780471  0.14751746  0.85886302    -0.13500
C367        C  0.00780567  0.14751720  0.64111626    -0.12000
C368        C  0.00780579  0.14751790  0.60886304    -0.13500
C369        C  0.23752121  0.26322318  0.74999708    -0.12000
C370        C  0.23752102  0.23677653  0.74999703    -0.13500
C371        C  0.23752443  0.23677538  0.99999643    -0.12000
C372        C  0.23752467  0.26322203  0.99999672    -0.13500
C373        C  0.24220078  0.35247956  0.85886936    -0.12000
C374        C  0.24220051  0.35247891  0.89112255    -0.13500
C375        C  0.24220036  0.35247907  0.64112259    -0.12000
C376        C  0.24220004  0.35247913  0.60886936    -0.13500
C377        C  0.01248064  0.23677342  0.74998881    -0.12000
C378        C  0.01248088  0.26322007  0.74998903    -0.13500
C379        C  0.01248582  0.23677454  0.99998895    -0.12000
C380        C  0.01248618  0.26322120  0.99998923    -0.13500
C381        C  0.00780429  0.35247635  0.85886377    -0.12000
C382        C  0.00780451  0.35247712  0.89111698    -0.13500
C383        C  0.00780562  0.35247693  0.60886376    -0.12000
C384        C  0.00780533  0.35247696  0.64111697    -0.13500
O385        O  0.99814181  0.54401910  0.02973841    -0.71600
O386        O  0.99813969  0.95597641  0.02973867    -0.72600
O387        O  0.07440430  0.99900661  0.02972403    -0.61200
O388        O  0.42559567  0.49900619  0.02972386    -0.69700
O389        O  0.42559545  0.49900608  0.47026097    -0.69200
O390        O  0.07440480  0.99900653  0.47026117    -0.60500
O391        O  0.49813988  0.95597674  0.47024540    -0.73000
O392        O  0.49814201  0.54401876  0.47024518    -0.71800
Cu393      Cu  0.00000006  0.99999791  0.03183442     1.04600
Cu394      Cu  0.50000018  0.49999768  0.46815010     1.04300
C395        C  0.99741484  0.55778249  0.99999159     0.94600
C396        C  0.49741259  0.94221303  0.49999192     0.93700
C397        C  0.09781188  0.50116223  0.99999280     0.85800
C398        C  0.40218840  0.00116224  0.99999251     0.92100
O399        O  0.99814500  0.95597531  0.27973871    -0.71600
O400        O  0.99814715  0.54401821  0.27973837    -0.72600
O401        O  0.42560152  0.00098845  0.27972388    -0.61200
O402        O  0.07440995  0.99900560  0.27972389    -0.69700
O403        O  0.07441035  0.99900565  0.22026103    -0.69200
O404        O  0.42560115  0.00098831  0.22026103    -0.60500
O405        O  0.99814742  0.54401791  0.22024513    -0.73000
O406        O  0.99814527  0.95597549  0.22024548    -0.71800
Cu407      Cu  0.00000567  0.99999681  0.28183436     1.04600
Cu408      Cu  0.00000569  0.99999674  0.21814998     1.04300
C409        C  0.99741753  0.94221181  0.24999203     0.94600
C410        C  0.99741993  0.55778159  0.24999155     0.93700
C411        C  0.40219394  0.00116156  0.24999257     0.85800
C412        C  0.09781757  0.99883357  0.24999260     0.92100
O413        O  0.32440491  0.00099014  0.02972439    -0.71600
O414        O  0.17559559  0.99900703  0.02972468    -0.72600
O415        O  0.25185828  0.95597761  0.02974033    -0.61200
O416        O  0.25186083  0.54401991  0.02974025    -0.69700
O417        O  0.25186082  0.54402025  0.47024703    -0.69200
O418        O  0.25185829  0.95597738  0.47024717    -0.60500
O419        O  0.17559589  0.99900698  0.47026178    -0.73000
O420        O  0.32440447  0.00099028  0.47026151    -0.71800
Cu421      Cu  0.25000033  0.99999861  0.03183553     1.04600
Cu422      Cu  0.25000013  0.99999871  0.46815121     1.04300
C423        C  0.34781213  0.00116266  0.49999279     0.94600
C424        C  0.15218835  0.99883432  0.49999310     0.93700
C425        C  0.25258559  0.94221393  0.49999394     0.85800
C426        C  0.25258862  0.55778365  0.49999380     0.92100
O427        O  0.25186349  0.95597883  0.27974038    -0.71600
O428        O  0.25186624  0.54402094  0.27974006    -0.72600
O429        O  0.17560101  0.50099099  0.27972442    -0.61200
O430        O  0.32441011  0.49900797  0.27972442    -0.69700
O431        O  0.32440987  0.49900785  0.22026156    -0.69200
O432        O  0.17560142  0.50099087  0.22026156    -0.60500
O433        O  0.25186634  0.54402115  0.22024684    -0.73000
O434        O  0.25186379  0.95597847  0.22024712    -0.71800
Cu435      Cu  0.25000552  0.49999972  0.28183544     1.04600
Cu436      Cu  0.25000569  0.99999978  0.21815105     1.04300
C437        C  0.25259063  0.94221513  0.24999395     0.94600
C438        C  0.25259361  0.55778466  0.24999355     0.93700
C439        C  0.15219379  0.50116307  0.24999287     0.85800
C440        C  0.34781738  0.49883476  0.24999289     0.92100
O441        O  0.45351674  0.89728651  0.49999105    -0.71600
O442        O  0.44844794  0.80920112  0.49998993    -0.72600
O443        O  0.45092931  0.85326219  0.05369802    -0.61200
O444        O  0.45092899  0.85326306  0.44628291    -0.69700
O445        O  0.03350611  0.85167943  0.44627435    -0.69200
O446        O  0.03350653  0.85167880  0.05370618    -0.60500
O447        O  0.03102245  0.80768513  0.49998987    -0.73000
O448        O  0.03609755  0.89566610  0.49999095    -0.71800
Cu449      Cu  0.44803984  0.85331392  0.49999047     1.04600
Cu450      Cu  0.03643671  0.85161762  0.49999028     1.04300
C451        C  0.99559432  0.91023859  0.49999144     0.94600
C452        C  0.98901580  0.79468447  0.49998968     0.93700
C453        C  0.99221325  0.85247374  0.07048520     0.85800
C454        C  0.99221267  0.85247438  0.42949554     0.92100
O455        O  0.45351924  0.89728606  0.24999107    -0.71600
O456        O  0.44844491  0.80920067  0.24998969    -0.72600
O457        O  0.45092864  0.85326177  0.30369787    -0.61200
O458        O  0.45092905  0.85326282  0.19628268    -0.69700
O459        O  0.03350612  0.85167764  0.19627466    -0.69200
O460        O  0.03350569  0.85167660  0.30370638    -0.60500
O461        O  0.03101935  0.80768314  0.24998995    -0.73000
O462        O  0.03609993  0.89566403  0.24999133    -0.71800
Cu463      Cu  0.44803946  0.85331351  0.24999030     1.04600
Cu464      Cu  0.03643629  0.85161547  0.24999056     1.04300
C465        C  0.99559756  0.91023734  0.24999162     0.94600
C466        C  0.98901200  0.79468327  0.24998954     0.93700
C467        C  0.99221235  0.85247258  0.32048520     0.85800
C468        C  0.99221296  0.85247364  0.17949555     0.92100
O469        O  0.30156095  0.80920440  0.49999663    -0.71600
O470        O  0.29648441  0.89728960  0.49999507    -0.72600
O471        O  0.29907621  0.85326636  0.05370351    -0.61200
O472        O  0.29907645  0.85326566  0.44628846    -0.69700
O473        O  0.21649940  0.85167828  0.44627990    -0.69200
O474        O  0.21649915  0.85167895  0.05371185    -0.60500
O475        O  0.21390367  0.89566517  0.49999501    -0.73000
O476        O  0.21898650  0.80768471  0.49999636    -0.71800
Cu477      Cu  0.30196550  0.85331728  0.49999600     1.04600
Cu478      Cu  0.21356862  0.85161679  0.49999582     1.04300
C479        C  0.26099388  0.79468594  0.49999659     0.94600
C480        C  0.25440584  0.91023961  0.49999451     0.93700
C481        C  0.25779245  0.85247605  0.07049078     0.85800
C482        C  0.25779278  0.85247542  0.42950108     0.92100
O483        O  0.29907678  0.85326611  0.19628832    -0.71600
O484        O  0.29907700  0.85326702  0.30370346    -0.72600
O485        O  0.30155950  0.80920501  0.24999669    -0.61200
O486        O  0.29648730  0.89729013  0.24999506    -0.69700
O487        O  0.21390647  0.89566710  0.24999509    -0.69200
O488        O  0.21898500  0.80768651  0.24999668    -0.60500
O489        O  0.21649988  0.85168076  0.30371188    -0.73000
O490        O  0.21649966  0.85168002  0.19628005    -0.71800
Cu491      Cu  0.30196618  0.85331786  0.24999590     1.04600
Cu492      Cu  0.21356926  0.85161872  0.24999593     1.04300
C493        C  0.25779296  0.85247629  0.17950109     0.94600
C494        C  0.25779324  0.85247713  0.32049076     0.93700
C495        C  0.26099183  0.79468713  0.24999693     0.85800
C496        C  0.25440937  0.91024082  0.24999461     0.92100
O497        O  0.03102168  0.69231105  0.49998892    -0.71600
O498        O  0.03609907  0.60433053  0.49999030    -0.72600
O499        O  0.03350612  0.64831678  0.44627363    -0.61200
O500        O  0.03350661  0.64831748  0.05370547    -0.69700
O501        O  0.45092948  0.64673165  0.05369729    -0.69200
O502        O  0.45092885  0.64673095  0.44628216    -0.60500
O503        O  0.45351825  0.60270768  0.49999049    -0.73000
O504        O  0.44844714  0.69079294  0.49998911    -0.71800
Cu505      Cu  0.03643693  0.64837885  0.49998960     1.04600
Cu506      Cu  0.44803999  0.64668009  0.49998970     1.04300
C507        C  0.98901503  0.70531063  0.49998889     0.94600
C508        C  0.99559610  0.58975687  0.49999090     0.93700
C509        C  0.99221271  0.64752043  0.42949479     0.85800
C510        C  0.99221332  0.64752117  0.07048447     0.92100
O511        O  0.44844434  0.69079097  0.24998896    -0.71600
O512        O  0.45352087  0.60270588  0.24999025    -0.72600
O513        O  0.45092887  0.64672969  0.30369708    -0.61200
O514        O  0.45092941  0.64672920  0.19628197    -0.69700
O515        O  0.03350642  0.64831658  0.19627386    -0.69200
O516        O  0.03350587  0.64831724  0.30370567    -0.60500
O517        O  0.03610177  0.60433034  0.24999053    -0.73000
O518        O  0.03101875  0.69231073  0.24998920    -0.71800
Cu519      Cu  0.44803993  0.64667811  0.24998951     1.04600
Cu520      Cu  0.03643660  0.64837864  0.24998977     1.04300
C521        C  0.98901137  0.70530949  0.24998898     0.94600
C522        C  0.99559963  0.58975590  0.24999088     0.93700
C523        C  0.99221249  0.64752019  0.32048447     0.85800
C524        C  0.99221321  0.64751970  0.17949482     0.92100
O525        O  0.21898614  0.69231212  0.49999587    -0.71600
O526        O  0.21390612  0.60433130  0.49999483    -0.72600
O527        O  0.21650012  0.64831788  0.05371135    -0.61200
O528        O  0.21649983  0.64831852  0.44627963    -0.69700
O529        O  0.29907690  0.64673357  0.44628779    -0.69200
O530        O  0.29907714  0.64673292  0.05370294    -0.60500
O531        O  0.29648686  0.60270941  0.49999473    -0.73000
O532        O  0.30156057  0.69079475  0.49999581    -0.71800
Cu533      Cu  0.21356956  0.64837975  0.49999550     1.04600
Cu534      Cu  0.30196638  0.64668189  0.49999529     1.04300
C535        C  0.26099340  0.70531210  0.49999607     0.94600
C536        C  0.25440856  0.58975808  0.49999435     0.93700
C537        C  0.25779346  0.64752227  0.07049025     0.85800
C538        C  0.25779307  0.64752282  0.42950062     0.92100
O539        O  0.21650012  0.64831806  0.30371124    -0.71600
O540        O  0.21650057  0.64831931  0.19627949    -0.72600
O541        O  0.21390886  0.60433169  0.24999452    -0.61200
O542        O  0.21898461  0.69231271  0.24999613    -0.69700
O543        O  0.30155912  0.69079656  0.24999640    -0.69200
O544        O  0.29648968  0.60271120  0.24999458    -0.60500
O545        O  0.29907770  0.64673557  0.19628788    -0.73000
O546        O  0.29907724  0.64673428  0.30370315    -0.71800
Cu547      Cu  0.21356993  0.64838019  0.24999536     1.04600
Cu548      Cu  0.30196680  0.64668379  0.24999557     1.04300
C549        C  0.25779334  0.64752278  0.32049029     0.94600
C550        C  0.25779391  0.64752412  0.17950058     0.93700
C551        C  0.25441201  0.58975915  0.24999403     0.85800
C552        C  0.26099135  0.70531329  0.24999649     0.92100
C553        C  0.25780445  0.64751975  0.39112206    -0.12000
C554        C  0.25780458  0.64751962  0.35886885    -0.13500
C555        C  0.25780529  0.64752060  0.14112202    -0.12000
C556        C  0.25780511  0.64751983  0.10886881    -0.13500
C557        C  0.99220102  0.64751716  0.39111624    -0.12000
C558        C  0.99220083  0.64751716  0.35886304    -0.13500
C559        C  0.99220187  0.64751709  0.14111626    -0.12000
C560        C  0.99220191  0.64751765  0.10886304    -0.13500
C561        C  0.26248101  0.76322355  0.24999721    -0.12000
C562        C  0.26248062  0.73677690  0.24999698    -0.13500
C563        C  0.26248379  0.73677572  0.49999655    -0.12000
C564        C  0.26248423  0.76322237  0.49999667    -0.13500
C565        C  0.25780473  0.85247975  0.35886931    -0.12000
C566        C  0.25780446  0.85247905  0.39112252    -0.13500
C567        C  0.25780428  0.85247926  0.14112254    -0.12000
C568        C  0.25780398  0.85247926  0.10886933    -0.13500
C569        C  0.98752099  0.73677304  0.24998888    -0.12000
C570        C  0.98752145  0.76321968  0.24998900    -0.13500
C571        C  0.98752632  0.73677421  0.49998884    -0.12000
C572        C  0.98752682  0.76322086  0.49998914    -0.13500
C573        C  0.99220083  0.85247619  0.35886376    -0.12000
C574        C  0.99220096  0.85247687  0.39111698    -0.13500
C575        C  0.99220195  0.85247672  0.10886376    -0.12000
C576        C  0.99220188  0.85247680  0.14111697    -0.13500
O577        O  0.99814189  0.54401911  0.52973839    -0.71600
O578        O  0.99813976  0.95597648  0.52973863    -0.72600
O579        O  0.07440430  0.99900664  0.52972402    -0.61200
O580        O  0.42559574  0.49900621  0.52972379    -0.69700
O581        O  0.42559540  0.49900616  0.97026099    -0.69200
O582        O  0.07440472  0.99900658  0.97026118    -0.60500
O583        O  0.49813987  0.95597676  0.97024543    -0.73000
O584        O  0.49814200  0.54401877  0.97024517    -0.71800
Cu585      Cu  0.00000011  0.99999795  0.53183430     1.04600
Cu586      Cu  0.50000001  0.49999770  0.96815000     1.04300
C587        C  0.99741483  0.55778249  0.49999158     0.94600
C588        C  0.49741257  0.94221300  0.99999191     0.93700
C589        C  0.09781186  0.50116226  0.49999276     0.85800
C590        C  0.40218845  0.00116222  0.49999245     0.92100
O591        O  0.99814509  0.95597532  0.77973870    -0.71600
O592        O  0.99814726  0.54401823  0.77973834    -0.72600
O593        O  0.42560157  0.00098849  0.77972391    -0.61200
O594        O  0.07441004  0.99900564  0.77972393    -0.69700
O595        O  0.07441040  0.99900568  0.72026107    -0.69200
O596        O  0.42560124  0.00098836  0.72026105    -0.60500
O597        O  0.99814725  0.54401787  0.72024509    -0.73000
O598        O  0.99814512  0.95597555  0.72024549    -0.71800
Cu599      Cu  0.00000574  0.99999683  0.78183443     1.04600
Cu600      Cu  0.00000574  0.99999674  0.71815005     1.04300
C601        C  0.99741746  0.94221184  0.74999200     0.94600
C602        C  0.99741990  0.55778157  0.74999151     0.93700
C603        C  0.40219402  0.00116160  0.74999259     0.85800
C604        C  0.09781764  0.99883358  0.74999261     0.92100
O605        O  0.32440495  0.00099015  0.52972436    -0.71600
O606        O  0.17559567  0.99900706  0.52972462    -0.72600
O607        O  0.25185834  0.95597757  0.52974041    -0.61200
O608        O  0.25186090  0.54401987  0.52974026    -0.69700
O609        O  0.25186093  0.54402026  0.97024705    -0.69200
O610        O  0.25185834  0.95597730  0.97024711    -0.60500
O611        O  0.17559595  0.99900703  0.97026185    -0.73000
O612        O  0.32440440  0.00099018  0.97026155    -0.71800
Cu613      Cu  0.25000039  0.99999863  0.53183559     1.04600
Cu614      Cu  0.25000017  0.99999871  0.96815128     1.04300
C615        C  0.34781208  0.00116263  0.99999283     0.94600
C616        C  0.15218832  0.99883434  0.99999314     0.93700
C617        C  0.25258563  0.94221392  0.99999391     0.85800
C618        C  0.25258868  0.55778366  0.99999380     0.92100
O619        O  0.25186360  0.95597879  0.77974033    -0.71600
O620        O  0.25186612  0.54402089  0.77974007    -0.72600
O621        O  0.17560104  0.50099102  0.77972448    -0.61200
O622        O  0.32441020  0.49900787  0.77972449    -0.69700
O623        O  0.32440983  0.49900792  0.72026164    -0.69200
O624        O  0.17560139  0.50099090  0.72026163    -0.60500
O625        O  0.25186609  0.54402118  0.72024686    -0.73000
O626        O  0.25186360  0.95597848  0.72024709    -0.71800
Cu627      Cu  0.25000556  0.49999972  0.78183550     1.04600
Cu628      Cu  0.25000573  0.99999978  0.71815113     1.04300
C629        C  0.25259061  0.94221510  0.74999391     0.94600
C630        C  0.25259345  0.55778463  0.74999358     0.93700
C631        C  0.15219380  0.50116311  0.74999294     0.85800
C632        C  0.34781742  0.49883476  0.74999296     0.92100
O633        O  0.45351684  0.89728640  0.99999112    -0.71600
O634        O  0.44844791  0.80920112  0.99999003    -0.72600
O635        O  0.45092937  0.85326224  0.55369806    -0.61200
O636        O  0.45092900  0.85326304  0.94628295    -0.69700
O637        O  0.03350619  0.85167947  0.94627438    -0.69200
O638        O  0.03350651  0.85167878  0.55370623    -0.60500
O639        O  0.03102250  0.80768512  0.99998980    -0.73000
O640        O  0.03609765  0.89566611  0.99999084    -0.71800
Cu641      Cu  0.44803991  0.85331382  0.99999053     1.04600
Cu642      Cu  0.03643678  0.85161764  0.99999029     1.04300
C643        C  0.99559437  0.91023854  0.99999138     0.94600
C644        C  0.98901582  0.79468446  0.99998971     0.93700
C645        C  0.99221324  0.85247370  0.57048524     0.85800
C646        C  0.99221276  0.85247441  0.92949555     0.92100
O647        O  0.45351907  0.89728610  0.74999098    -0.71600
O648        O  0.44844494  0.80920071  0.74998964    -0.72600
O649        O  0.45092867  0.85326182  0.80369788    -0.61200
O650        O  0.45092912  0.85326286  0.69628267    -0.69700
O651        O  0.03350618  0.85167768  0.69627461    -0.69200
O652        O  0.03350564  0.85167663  0.80370633    -0.60500
O653        O  0.03101926  0.80768312  0.74998990    -0.73000
O654        O  0.03609983  0.89566407  0.74999124    -0.71800
Cu655      Cu  0.44803951  0.85331355  0.74999032     1.04600
Cu656      Cu  0.03643632  0.85161549  0.74999056     1.04300
C657        C  0.99559746  0.91023738  0.74999153     0.94600
C658        C  0.98901189  0.79468327  0.74998953     0.93700
C659        C  0.99221233  0.85247262  0.82048522     0.85800
C660        C  0.99221298  0.85247368  0.67949554     0.92100
O661        O  0.30156086  0.80920439  0.99999665    -0.71600
O662        O  0.29648450  0.89728963  0.99999510    -0.72600
O663        O  0.29907624  0.85326638  0.55370349    -0.61200
O664        O  0.29907637  0.85326570  0.94628841    -0.69700
O665        O  0.21649931  0.85167833  0.94627997    -0.69200
O666        O  0.21649918  0.85167897  0.55371185    -0.60500
O667        O  0.21390375  0.89566518  0.99999512    -0.73000
O668        O  0.21898642  0.80768467  0.99999645    -0.71800
Cu669      Cu  0.30196555  0.85331731  0.99999593     1.04600
Cu670      Cu  0.21356866  0.85161681  0.99999589     1.04300
C671        C  0.26099380  0.79468591  0.99999668     0.94600
C672        C  0.25440592  0.91023962  0.99999461     0.93700
C673        C  0.25779251  0.85247609  0.57049078     0.85800
C674        C  0.25779266  0.85247546  0.92950110     0.92100
O675        O  0.29907671  0.85326595  0.69628842    -0.71600
O676        O  0.29907695  0.85326688  0.80370352    -0.72600
O677        O  0.30155947  0.80920491  0.74999675    -0.61200
O678        O  0.29648734  0.89729006  0.74999497    -0.69700
O679        O  0.21390656  0.89566703  0.74999517    -0.69200
O680        O  0.21898499  0.80768654  0.74999673    -0.60500
O681        O  0.21649987  0.85168082  0.80371190    -0.73000
O682        O  0.21649962  0.85167993  0.69628011    -0.71800
Cu683      Cu  0.30196599  0.85331771  0.74999597     1.04600
Cu684      Cu  0.21356932  0.85161871  0.74999600     1.04300
C685        C  0.25779292  0.85247623  0.67950116     0.94600
C686        C  0.25779319  0.85247712  0.82049081     0.93700
C687        C  0.26099179  0.79468710  0.74999688     0.85800
C688        C  0.25440942  0.91024078  0.74999458     0.92100
O689        O  0.03102173  0.69231110  0.99998895    -0.71600
O690        O  0.03609917  0.60433050  0.99999027    -0.72600
O691        O  0.03350607  0.64831682  0.94627359    -0.61200
O692        O  0.03350657  0.64831750  0.55370552    -0.69700
O693        O  0.45092956  0.64673168  0.55369723    -0.69200
O694        O  0.45092894  0.64673100  0.94628221    -0.60500
O695        O  0.45351835  0.60270771  0.99999054    -0.73000
O696        O  0.44844721  0.69079296  0.99998921    -0.71800
Cu697      Cu  0.03643701  0.64837887  0.99998951     1.04600
Cu698      Cu  0.44804005  0.64668012  0.99998978     1.04300
C699        C  0.98901503  0.70531066  0.99998898     0.94600
C700        C  0.99559617  0.58975686  0.99999091     0.93700
C701        C  0.99221261  0.64752047  0.92949480     0.85800
C702        C  0.99221326  0.64752121  0.57048447     0.92100
O703        O  0.44844442  0.69079100  0.74998904    -0.71600
O704        O  0.45352093  0.60270581  0.74999036    -0.72600
O705        O  0.45092876  0.64672972  0.80369710    -0.61200
O706        O  0.45092932  0.64672924  0.69628198    -0.69700
O707        O  0.03350644  0.64831664  0.69627379    -0.69200
O708        O  0.03350585  0.64831727  0.80370567    -0.60500
O709        O  0.03610163  0.60433034  0.74999044    -0.73000
O710        O  0.03101881  0.69231080  0.74998930    -0.71800
Cu711      Cu  0.44803998  0.64667813  0.74998958     1.04600
Cu712      Cu  0.03643665  0.64837868  0.74998980     1.04300
C713        C  0.98901139  0.70530952  0.74998902     0.94600
C714        C  0.99559953  0.58975587  0.74999086     0.93700
C715        C  0.99221246  0.64752023  0.82048448     0.85800
C716        C  0.99221321  0.64751974  0.67949479     0.92100
O717        O  0.21898620  0.69231212  0.99999590    -0.71600
O718        O  0.21390619  0.60433131  0.99999480    -0.72600
O719        O  0.21650018  0.64831792  0.55371145    -0.61200
O720        O  0.21649986  0.64831859  0.94627953    -0.69700
O721        O  0.29907688  0.64673346  0.94628779    -0.69200
O722        O  0.29907722  0.64673279  0.55370289    -0.60500
O723        O  0.29648689  0.60270943  0.99999482    -0.73000
O724        O  0.30156060  0.69079474  0.99999588    -0.71800
Cu725      Cu  0.21356962  0.64837977  0.99999539     1.04600
Cu726      Cu  0.30196619  0.64668191  0.99999537     1.04300
C727        C  0.26099346  0.70531209  0.99999610     0.94600
C728        C  0.25440862  0.58975809  0.99999435     0.93700
C729        C  0.25779357  0.64752226  0.57049028     0.85800
C730        C  0.25779309  0.64752277  0.92950056     0.92100
O731        O  0.21650018  0.64831796  0.80371129    -0.71600
O732        O  0.21650054  0.64831924  0.69627956    -0.72600
O733        O  0.21390875  0.60433169  0.74999444    -0.61200
O734        O  0.21898466  0.69231271  0.74999626    -0.69700
O735        O  0.30155916  0.69079656  0.74999625    -0.69200
O736        O  0.29648955  0.60271120  0.74999464    -0.60500
O737        O  0.29907767  0.64673560  0.69628791    -0.73000
O738        O  0.29907731  0.64673435  0.80370306    -0.71800
Cu739      Cu  0.21356999  0.64838019  0.74999543     1.04600
Cu740      Cu  0.30196683  0.64668381  0.74999547     1.04300
C741        C  0.25779344  0.64752278  0.82049027     0.94600
C742        C  0.25779387  0.64752411  0.67950064     0.93700
C743        C  0.25441190  0.58975914  0.74999408     0.85800
C744        C  0.26099138  0.70531328  0.74999653     0.92100
C745        C  0.25780444  0.64751965  0.89112202    -0.12000
C746        C  0.25780468  0.64751961  0.85886882    -0.13500
C747        C  0.25780533  0.64752065  0.64112207    -0.12000
C748        C  0.25780527  0.64751988  0.60886886    -0.13500
C749        C  0.99220087  0.64751721  0.89111624    -0.12000
C750        C  0.99220082  0.64751720  0.85886302    -0.13500
C751        C  0.99220181  0.64751713  0.64111622    -0.12000
C752        C  0.99220186  0.64751769  0.60886302    -0.13500
C753        C  0.26248090  0.76322354  0.74999708    -0.12000
C754        C  0.26248057  0.73677690  0.74999702    -0.13500
C755        C  0.26248382  0.73677568  0.99999648    -0.12000
C756        C  0.26248416  0.76322234  0.99999671    -0.13500
C757        C  0.25780470  0.85247979  0.85886936    -0.12000
C758        C  0.25780435  0.85247909  0.89112256    -0.13500
C759        C  0.25780433  0.85247930  0.64112259    -0.12000
C760        C  0.25780411  0.85247931  0.60886936    -0.13500
C761        C  0.98752088  0.73677306  0.74998882    -0.12000
C762        C  0.98752130  0.76321969  0.74998903    -0.13500
C763        C  0.98752617  0.73677422  0.99998895    -0.12000
C764        C  0.98752668  0.76322087  0.99998923    -0.13500
C765        C  0.99220093  0.85247623  0.85886377    -0.12000
C766        C  0.99220105  0.85247691  0.89111698    -0.13500
C767        C  0.99220190  0.85247672  0.60886379    -0.12000
C768        C  0.99220178  0.85247684  0.64111700    -0.13500
O769        O  0.50186061  0.04401933  0.02973841    -0.71600
O770        O  0.50185808  0.45597627  0.02973867    -0.72600
O771        O  0.57440424  0.50098945  0.02972410    -0.61200
O772        O  0.92559591  0.00098945  0.02972386    -0.69700
O773        O  0.92559560  0.00098938  0.47026092    -0.69200
O774        O  0.57440475  0.50098953  0.47026121    -0.60500
O775        O  0.00185844  0.45597657  0.47024543    -0.73000
O776        O  0.00186069  0.04401898  0.47024514    -0.71800
Cu777      Cu  0.49999987  0.49999771  0.03183443     1.04600
Cu778      Cu  0.00000014  0.99999786  0.46814991     1.04300
C779        C  0.50258844  0.05778272  0.99999159     0.94600
C780        C  0.00258575  0.44221287  0.49999194     0.93700
C781        C  0.59781202  0.99883410  0.99999274     0.85800
C782        C  0.90218811  0.49883377  0.99999251     0.92100
O783        O  0.50186364  0.45597541  0.27973878    -0.71600
O784        O  0.50186616  0.04401814  0.27973838    -0.72600
O785        O  0.92560126  0.49900553  0.27972388    -0.61200
O786        O  0.57440981  0.50098883  0.27972388    -0.69700
O787        O  0.57441017  0.50098877  0.22026103    -0.69200
O788        O  0.92560089  0.49900549  0.22026102    -0.60500
O789        O  0.50186609  0.04401778  0.22024513    -0.73000
O790        O  0.50186362  0.45597570  0.22024555    -0.71800
Cu791      Cu  0.50000547  0.49999689  0.28183436     1.04600
Cu792      Cu  0.50000546  0.49999691  0.21814998     1.04300
C793        C  0.50259069  0.44221198  0.24999206     0.94600
C794        C  0.50259348  0.05778150  0.24999154     0.93700
C795        C  0.90219366  0.49883343  0.24999257     0.85800
C796        C  0.59781743  0.50116189  0.24999257     0.92100
O797        O  0.82440463  0.49900716  0.02972444    -0.71600
O798        O  0.67559550  0.50099013  0.02972470    -0.72600
O799        O  0.74813955  0.45597774  0.02974042    -0.61200
O800        O  0.74814247  0.04401977  0.02974026    -0.69700
O801        O  0.74814211  0.04402014  0.47024703    -0.69200
O802        O  0.74813927  0.45597740  0.47024719    -0.60500
O803        O  0.67559576  0.50099022  0.47026176    -0.73000
O804        O  0.82440417  0.49900719  0.47026158    -0.71800
Cu805      Cu  0.75000011  0.49999879  0.03183555     1.04600
Cu806      Cu  0.74999992  0.49999878  0.46815121     1.04300
C807        C  0.84781182  0.49883431  0.49999286     0.94600
C808        C  0.65218825  0.50116262  0.49999309     0.93700
C809        C  0.74741213  0.44221397  0.49999399     0.85800
C810        C  0.74741536  0.05778353  0.49999380     0.92100
O811        O  0.74814485  0.45597866  0.27974038    -0.71600
O812        O  0.74814779  0.04402103  0.27974005    -0.72600
O813        O  0.67560119  0.99900801  0.27972442    -0.61200
O814        O  0.82441042  0.00099106  0.27972442    -0.69700
O815        O  0.82441009  0.00099113  0.22026156    -0.69200
O816        O  0.67560151  0.99900787  0.22026157    -0.60500
O817        O  0.74814772  0.04402130  0.22024682    -0.73000
O818        O  0.74814483  0.45597829  0.22024712    -0.71800
Cu819      Cu  0.75000585  0.99999985  0.28183544     1.04600
Cu820      Cu  0.75000568  0.49999961  0.21815105     1.04300
C821        C  0.74741709  0.44221495  0.24999395     0.94600
C822        C  0.74742039  0.05778474  0.24999356     0.93700
C823        C  0.65219392  0.99883485  0.24999288     0.85800
C824        C  0.84781767  0.00116307  0.24999288     0.92100
O825        O  0.96390429  0.39566390  0.49999122    -0.71600
O826        O  0.96898812  0.30768334  0.49998993    -0.72600
O827        O  0.96650053  0.35167683  0.05370644    -0.61200
O828        O  0.96649995  0.35167752  0.44627458    -0.69700
O829        O  0.54907694  0.35326528  0.44628268    -0.69200
O830        O  0.54907765  0.35326444  0.05369786    -0.60500
O831        O  0.55156251  0.30920333  0.49998967    -0.73000
O832        O  0.54648495  0.39728858  0.49999096    -0.71800
Cu833      Cu  0.96356981  0.35161544  0.49999050     1.04600
Cu834      Cu  0.55196644  0.35331622  0.49999023     1.04300
C835        C  0.50440628  0.41023850  0.49999150     0.94600
C836        C  0.51099563  0.29468472  0.49998961     0.93700
C837        C  0.50779399  0.35247382  0.07048524     0.85800
C838        C  0.50779314  0.35247458  0.42949554     0.92100
O839        O  0.96390665  0.39566372  0.24999107    -0.71600
O840        O  0.96898509  0.30768303  0.24998971    -0.72600
O841        O  0.96649974  0.35167642  0.30370621    -0.61200
O842        O  0.96650005  0.35167746  0.19627435    -0.69700
O843        O  0.54907712  0.35326358  0.19628296    -0.69200
O844        O  0.54907683  0.35326250  0.30369803    -0.60500
O845        O  0.55155955  0.30920146  0.24998978    -0.73000
O846        O  0.54648742  0.39728681  0.24999135    -0.71800
Cu847      Cu  0.96356939  0.35161525  0.24999030     1.04600
Cu848      Cu  0.55196609  0.35331436  0.24999054     1.04300
C849        C  0.50440950  0.41023755  0.24999162     0.94600
C850        C  0.51099189  0.29468361  0.24998948     0.93700
C851        C  0.50779300  0.35247279  0.32048521     0.85800
C852        C  0.50779346  0.35247390  0.17949555     0.92100
O853        O  0.78102055  0.30768615  0.49999662    -0.71600
O854        O  0.78609662  0.39566699  0.49999529    -0.72600
O855        O  0.78350485  0.35168055  0.05371181    -0.61200
O856        O  0.78350513  0.35167988  0.44628014    -0.69700
O857        O  0.70092802  0.35326371  0.44628822    -0.69200
O858        O  0.70092774  0.35326437  0.05370354    -0.60500
O859        O  0.70351580  0.39728766  0.49999502    -0.73000
O860        O  0.69844606  0.30920240  0.49999636    -0.71800
Cu861      Cu  0.78643534  0.35161857  0.49999605     1.04600
Cu862      Cu  0.69803851  0.35331514  0.49999580     1.04300
C863        C  0.73901378  0.29468563  0.49999659     0.94600
C864        C  0.74559354  0.41023958  0.49999464     0.93700
C865        C  0.74221155  0.35247586  0.07049078     0.85800
C866        C  0.74221192  0.35247524  0.42950107     0.92100
O867        O  0.78350546  0.35168026  0.19627998    -0.71600
O868        O  0.78350551  0.35168102  0.30371179    -0.72600
O869        O  0.78101919  0.30768671  0.24999667    -0.61200
O870        O  0.78609953  0.39566740  0.24999508    -0.69700
O871        O  0.70351876  0.39728941  0.24999508    -0.69200
O872        O  0.69844474  0.30920418  0.24999667    -0.60500
O873        O  0.70092845  0.35326620  0.30370345    -0.73000
O874        O  0.70092840  0.35326544  0.19628839    -0.71800
Cu875      Cu  0.78643602  0.35161900  0.24999590     1.04600
Cu876      Cu  0.69803920  0.35331703  0.24999590     1.04300
C877        C  0.74221211  0.35247610  0.17950109     0.94600
C878        C  0.74221221  0.35247689  0.32049072     0.93700
C879        C  0.73901187  0.29468681  0.24999692     0.85800
C880        C  0.74559711  0.41024062  0.24999461     0.92100
O881        O  0.55156197  0.19079341  0.49998891    -0.71600
O882        O  0.54648704  0.10270820  0.49999048    -0.72600
O883        O  0.54907738  0.14673141  0.44628197    -0.61200
O884        O  0.54907801  0.14673213  0.05369712    -0.69700
O885        O  0.96650098  0.14831752  0.05370565    -0.69200
O886        O  0.96650034  0.14831682  0.44627381    -0.60500
O887        O  0.96390630  0.10433043  0.49999047    -0.73000
O888        O  0.96898756  0.19231121  0.49998911    -0.71800
Cu889      Cu  0.55196699  0.14668059  0.49998962     1.04600
Cu890      Cu  0.96357015  0.14837887  0.49998969     1.04300
C891        C  0.51099502  0.20531094  0.49998888     0.94600
C892        C  0.50440858  0.08975708  0.49999095     0.93700
C893        C  0.50779352  0.14752068  0.42949479     0.85800
C894        C  0.50779433  0.14752143  0.07048447     0.92100
O895        O  0.96898466  0.19230920  0.24998896    -0.71600
O896        O  0.96390885  0.10432837  0.24999025    -0.72600
O897        O  0.96650022  0.14831551  0.30370541    -0.61200
O898        O  0.96650064  0.14831497  0.19627362    -0.69700
O899        O  0.54907775  0.14673106  0.19628220    -0.69200
O900        O  0.54907733  0.14673175  0.30369735    -0.60500
O901        O  0.54648968  0.10270780  0.24999053    -0.73000
O902        O  0.55155916  0.19079305  0.24998920    -0.71800
Cu903      Cu  0.96357005  0.14837673  0.24998950     1.04600
Cu904      Cu  0.55196691  0.14668028  0.24998978     1.04300
C905        C  0.51099140  0.20530977  0.24998897     0.94600
C906        C  0.50441198  0.08975584  0.24999088     0.93700
C907        C  0.50779345  0.14752039  0.32048448     0.85800
C908        C  0.50779405  0.14751973  0.17949482     0.92100
O909        O  0.69844609  0.19079387  0.49999587    -0.71600
O910        O  0.70351851  0.10270861  0.49999483    -0.72600
O911        O  0.70092915  0.14673208  0.05370302    -0.61200
O912        O  0.70092868  0.14673273  0.44628796    -0.69700
O913        O  0.78350576  0.14831898  0.44627946    -0.69200
O914        O  0.78350625  0.14831837  0.05371127    -0.60500
O915        O  0.78609927  0.10433177  0.49999475    -0.73000
O916        O  0.78102053  0.19231249  0.49999579    -0.71800
Cu917      Cu  0.69803972  0.14668103  0.49999550     1.04600
Cu918      Cu  0.78643639  0.14838024  0.49999529     1.04300
C919        C  0.73901364  0.20531181  0.49999601     0.94600
C920        C  0.74559645  0.08975794  0.49999435     0.93700
C921        C  0.74221296  0.14752209  0.07049024     0.85800
C922        C  0.74221239  0.14752263  0.42950062     0.92100
O923        O  0.70092920  0.14673216  0.30370291    -0.71600
O924        O  0.70092949  0.14673359  0.19628784    -0.72600
O925        O  0.70352137  0.10270913  0.24999450    -0.61200
O926        O  0.69844450  0.19079449  0.24999617    -0.69700
O927        O  0.78101893  0.19231430  0.24999621    -0.69200
O928        O  0.78610209  0.10433367  0.24999462    -0.60500
O929        O  0.78350654  0.14832096  0.19627953    -0.73000
O930        O  0.78350623  0.14831988  0.30371147    -0.71800
Cu931      Cu  0.69804015  0.14668158  0.24999536     1.04600
Cu932      Cu  0.78643702  0.14838216  0.24999554     1.04300
C933        C  0.74221287  0.14752260  0.32049028     0.94600
C934        C  0.74221324  0.14752394  0.17950058     0.93700
C935        C  0.74560000  0.08975914  0.24999406     0.85800
C936        C  0.73901150  0.20531303  0.24999643     0.92100
C937        C  0.74220090  0.14751956  0.39112206    -0.12000
C938        C  0.74220118  0.14751944  0.35886885    -0.13500
C939        C  0.74220170  0.14752042  0.14112202    -0.12000
C940        C  0.74220159  0.14751965  0.10886881    -0.13500
C941        C  0.50780475  0.14751742  0.39111625    -0.12000
C942        C  0.50780468  0.14751742  0.35886304    -0.13500
C943        C  0.50780574  0.14751716  0.14111626    -0.12000
C944        C  0.50780586  0.14751786  0.10886304    -0.13500
C945        C  0.73752144  0.26322322  0.24999721    -0.12000
C946        C  0.73752100  0.23677658  0.24999698    -0.13500
C947        C  0.73752428  0.23677538  0.49999638    -0.12000
C948        C  0.73752452  0.26322203  0.49999661    -0.13500
C949        C  0.74220074  0.35247956  0.35886928    -0.12000
C950        C  0.74220069  0.35247887  0.39112249    -0.13500
C951        C  0.74220046  0.35247908  0.14112254    -0.12000
C952        C  0.74220025  0.35247908  0.10886934    -0.13500
C953        C  0.51248059  0.23677338  0.24998889    -0.12000
C954        C  0.51248099  0.26322003  0.24998900    -0.13500
C955        C  0.51248584  0.23677452  0.49998885    -0.12000
C956        C  0.51248629  0.26322118  0.49998914    -0.13500
C957        C  0.50780441  0.35247630  0.35886376    -0.12000
C958        C  0.50780446  0.35247708  0.39111698    -0.13500
C959        C  0.50780558  0.35247693  0.10886378    -0.12000
C960        C  0.50780523  0.35247705  0.14111699    -0.13500
O961        O  0.50186067  0.04401932  0.52973839    -0.71600
O962        O  0.50185813  0.45597630  0.52973864    -0.72600
O963        O  0.57440426  0.50098948  0.52972404    -0.61200
O964        O  0.92559597  0.00098948  0.52972378    -0.69700
O965        O  0.92559563  0.00098942  0.97026100    -0.69200
O966        O  0.57440471  0.50098943  0.97026124    -0.60500
O967        O  0.00185826  0.45597661  0.97024543    -0.73000
O968        O  0.00186076  0.04401900  0.97024517    -0.71800
Cu969      Cu  0.49999990  0.49999775  0.53183431     1.04600
Cu970      Cu  0.00000018  0.99999790  0.96815000     1.04300
C971        C  0.50258840  0.05778271  0.49999158     0.94600
C972        C  0.00258573  0.44221289  0.99999191     0.93700
C973        C  0.59781204  0.99883408  0.49999275     0.85800
C974        C  0.90218811  0.49883375  0.49999250     0.92100
O975        O  0.50186367  0.45597544  0.77973874    -0.71600
O976        O  0.50186619  0.04401811  0.77973834    -0.72600
O977        O  0.92560133  0.49900557  0.77972393    -0.61200
O978        O  0.57440991  0.50098887  0.77972391    -0.69700
O979        O  0.57441022  0.50098876  0.72026106    -0.69200
O980        O  0.92560095  0.49900546  0.72026107    -0.60500
O981        O  0.50186614  0.04401775  0.72024509    -0.73000
O982        O  0.50186365  0.45597568  0.72024552    -0.71800
Cu983      Cu  0.50000555  0.49999693  0.78183443     1.04600
Cu984      Cu  0.50000553  0.49999683  0.71815005     1.04300
C985        C  0.50259067  0.44221197  0.74999203     0.94600
C986        C  0.50259342  0.05778147  0.74999152     0.93700
C987        C  0.90219372  0.49883346  0.74999261     0.85800
C988        C  0.59781748  0.50116193  0.74999259     0.92100
O989        O  0.82440468  0.49900711  0.52972445    -0.71600
O990        O  0.67559555  0.50099010  0.52972461    -0.72600
O991        O  0.74813967  0.45597763  0.52974043    -0.61200
O992        O  0.74814254  0.04401977  0.52974026    -0.69700
O993        O  0.74814222  0.04402016  0.97024706    -0.69200
O994        O  0.74813928  0.45597745  0.97024719    -0.60500
O995        O  0.67559582  0.50099028  0.97026186    -0.73000
O996        O  0.82440412  0.49900710  0.97026160    -0.71800
Cu997      Cu  0.75000018  0.49999868  0.53183560     1.04600
Cu998      Cu  0.74999996  0.49999880  0.96815128     1.04300
C999        C  0.84781178  0.49883429  0.99999289     0.94600
C1000       C  0.65218825  0.50116265  0.99999319     0.93700
C1001       C  0.74741207  0.44221404  0.99999399     0.85800
C1002       C  0.74741541  0.05778355  0.99999381     0.92100
O1003       O  0.74814481  0.45597868  0.77974034    -0.71600
O1004       O  0.74814771  0.04402099  0.77974008    -0.72600
O1005       O  0.67560116  0.99900795  0.77972450    -0.61200
O1006       O  0.82441042  0.00099107  0.77972444    -0.69700
O1007       O  0.82441005  0.00099101  0.72026159    -0.69200
O1008       O  0.67560151  0.99900790  0.72026164    -0.60500
O1009       O  0.74814768  0.04402127  0.72024687    -0.73000
O1010       O  0.74814483  0.45597832  0.72024709    -0.71800
Cu1011     Cu  0.75000571  0.99999977  0.78183550     1.04600
Cu1012     Cu  0.75000552  0.49999965  0.71815113     1.04300
C1013       C  0.74741716  0.44221496  0.74999392     0.94600
C1014       C  0.74742037  0.05778472  0.74999358     0.93700
C1015       C  0.65219393  0.99883481  0.74999297     0.85800
C1016       C  0.84781767  0.00116305  0.74999290     0.92100
O1017       O  0.96390432  0.39566394  0.99999111    -0.71600
O1018       O  0.96898802  0.30768339  0.99999005    -0.72600
O1019       O  0.96650065  0.35167669  0.55370638    -0.61200
O1020       O  0.96649999  0.35167754  0.94627460    -0.69700
O1021       O  0.54907700  0.35326531  0.94628272    -0.69200
O1022       O  0.54907753  0.35326445  0.55369780    -0.60500
O1023       O  0.55156247  0.30920339  0.99998977    -0.73000
O1024       O  0.54648502  0.39728862  0.99999086    -0.71800
Cu1025     Cu  0.96356961  0.35161550  0.99999056     1.04600
Cu1026     Cu  0.55196649  0.35331626  0.99999029     1.04300
C1027       C  0.50440633  0.41023853  0.99999139     0.94600
C1028       C  0.51099559  0.29468476  0.99998971     0.93700
C1029       C  0.50779391  0.35247385  0.57048519     0.85800
C1030       C  0.50779319  0.35247462  0.92949555     0.92100
O1031       O  0.96390668  0.39566373  0.74999101    -0.71600
O1032       O  0.96898498  0.30768308  0.74998964    -0.72600
O1033       O  0.96649953  0.35167645  0.80370624    -0.61200
O1034       O  0.96650008  0.35167750  0.69627433    -0.69700
O1035       O  0.54907720  0.35326354  0.69628295    -0.69200
O1036       O  0.54907685  0.35326250  0.80369803    -0.60500
O1037       O  0.55155948  0.30920144  0.74998990    -0.73000
O1038       O  0.54648747  0.39728678  0.74999127    -0.71800
Cu1039     Cu  0.96356919  0.35161528  0.74999032     1.04600
Cu1040     Cu  0.55196614  0.35331428  0.74999056     1.04300
C1041       C  0.50440953  0.41023754  0.74999157     0.94600
C1042       C  0.51099176  0.29468363  0.74998953     0.93700
C1043       C  0.50779300  0.35247283  0.82048522     0.85800
C1044       C  0.50779353  0.35247389  0.67949553     0.92100
O1045       O  0.78102051  0.30768620  0.99999647    -0.71600
O1046       O  0.78609668  0.39566706  0.99999511    -0.72600
O1047       O  0.78350485  0.35168057  0.55371188    -0.61200
O1048       O  0.78350524  0.35167992  0.94628007    -0.69700
O1049       O  0.70092811  0.35326375  0.94628831    -0.69200
O1050       O  0.70092774  0.35326440  0.55370345    -0.60500
O1051       O  0.70351586  0.39728769  0.99999511    -0.73000
O1052       O  0.69844600  0.30920235  0.99999647    -0.71800
Cu1053     Cu  0.78643540  0.35161861  0.99999590     1.04600
Cu1054     Cu  0.69803856  0.35331516  0.99999589     1.04300
C1055       C  0.73901377  0.29468563  0.99999662     0.94600
C1056       C  0.74559357  0.41023964  0.99999462     0.93700
C1057       C  0.74221153  0.35247590  0.57049078     0.85800
C1058       C  0.74221197  0.35247528  0.92950110     0.92100
O1059       O  0.78350524  0.35168014  0.69628007    -0.71600
O1060       O  0.78350560  0.35168103  0.80371188    -0.72600
O1061       O  0.78101916  0.30768663  0.74999658    -0.61200
O1062       O  0.78609961  0.39566740  0.74999499    -0.69700
O1063       O  0.70351885  0.39728942  0.74999517    -0.69200
O1064       O  0.69844473  0.30920422  0.74999676    -0.60500
O1065       O  0.70092855  0.35326621  0.80370354    -0.73000
O1066       O  0.70092818  0.35326532  0.69628845    -0.71800
Cu1067     Cu  0.78643608  0.35161899  0.74999594     1.04600
Cu1068     Cu  0.69803925  0.35331704  0.74999600     1.04300
C1069       C  0.74221191  0.35247597  0.67950117     0.94600
C1070       C  0.74221230  0.35247686  0.82049080     0.93700
C1071       C  0.73901180  0.29468678  0.74999682     0.85800
C1072       C  0.74559720  0.41024064  0.74999459     0.92100
O1073       O  0.55156196  0.19079343  0.99998895    -0.71600
O1074       O  0.54648712  0.10270824  0.99999028    -0.72600
O1075       O  0.54907747  0.14673147  0.94628194    -0.61200
O1076       O  0.54907810  0.14673216  0.55369718    -0.69700
O1077       O  0.96650095  0.14831754  0.55370558    -0.69200
O1078       O  0.96650035  0.14831686  0.94627386    -0.60500
O1079       O  0.96390629  0.10433047  0.99999054    -0.73000
O1080       O  0.96898766  0.19231117  0.99998921    -0.71800
Cu1081     Cu  0.55196705  0.14668062  0.99998951     1.04600
Cu1082     Cu  0.96357021  0.14837889  0.99998978     1.04300
C1083       C  0.51099499  0.20531094  0.99998898     0.94600
C1084       C  0.50440866  0.08975711  0.99999091     0.93700
C1085       C  0.50779360  0.14752073  0.92949480     0.85800
C1086       C  0.50779437  0.14752147  0.57048448     0.92100
O1087       O  0.96898468  0.19230925  0.74998905    -0.71600
O1088       O  0.96390884  0.10432838  0.74999035    -0.72600
O1089       O  0.96650001  0.14831556  0.80370547    -0.61200
O1090       O  0.96650064  0.14831487  0.69627368    -0.69700
O1091       O  0.54907783  0.14673109  0.69628223    -0.69200
O1092       O  0.54907719  0.14673180  0.80369733    -0.60500
O1093       O  0.54648961  0.10270780  0.74999063    -0.73000
O1094       O  0.55155923  0.19079309  0.74998911    -0.71800
Cu1095     Cu  0.96356984  0.14837676  0.74998959     1.04600
Cu1096     Cu  0.55196695  0.14668031  0.74998983     1.04300
C1097       C  0.51099146  0.20530981  0.74998896     0.94600
C1098       C  0.50441188  0.08975585  0.74999091     0.93700
C1099       C  0.50779330  0.14752044  0.82048447     0.85800
C1100       C  0.50779412  0.14751977  0.67949484     0.92100
O1101       O  0.69844598  0.19079392  0.99999587    -0.71600
O1102       O  0.70351855  0.10270865  0.99999480    -0.72600
O1103       O  0.70092904  0.14673211  0.55370312    -0.61200
O1104       O  0.70092868  0.14673276  0.94628783    -0.69700
O1105       O  0.78350581  0.14831883  0.94627948    -0.69200
O1106       O  0.78350611  0.14831836  0.55371122    -0.60500
O1107       O  0.78609934  0.10433181  0.99999484    -0.73000
O1108       O  0.78102048  0.19231243  0.99999565    -0.71800
Cu1109     Cu  0.69803953  0.14668106  0.99999539     1.04600
Cu1110     Cu  0.78643644  0.14838024  0.99999535     1.04300
C1111       C  0.73901361  0.20531181  0.99999595     0.94600
C1112       C  0.74559651  0.08975797  0.99999437     0.93700
C1113       C  0.74221290  0.14752212  0.57049028     0.85800
C1114       C  0.74221247  0.14752250  0.92950057     0.92100
O1115       O  0.70092925  0.14673216  0.80370294    -0.71600
O1116       O  0.70092946  0.14673344  0.69628791    -0.72600
O1117       O  0.70352142  0.10270912  0.74999443    -0.61200
O1118       O  0.69844458  0.19079442  0.74999626    -0.69700
O1119       O  0.78101902  0.19231429  0.74999625    -0.69200
O1120       O  0.78610214  0.10433368  0.74999464    -0.60500
O1121       O  0.78350651  0.14832103  0.69627957    -0.73000
O1122       O  0.78350629  0.14831978  0.80371151    -0.71800
Cu1123     Cu  0.69804021  0.14668148  0.74999542     1.04600
Cu1124     Cu  0.78643710  0.14838217  0.74999549     1.04300
C1125       C  0.74221289  0.14752259  0.82049032     0.94600
C1126       C  0.74221321  0.14752393  0.67950064     0.93700
C1127       C  0.74560004  0.08975914  0.74999406     0.85800
C1128       C  0.73901156  0.20531298  0.74999653     0.92100
C1129       C  0.74220099  0.14751942  0.89112204    -0.12000
C1130       C  0.74220111  0.14751944  0.85886885    -0.13500
C1131       C  0.74220173  0.14752046  0.64112208    -0.12000
C1132       C  0.74220164  0.14751969  0.60886887    -0.13500
C1133       C  0.50780482  0.14751746  0.89111623    -0.12000
C1134       C  0.50780469  0.14751746  0.85886302    -0.13500
C1135       C  0.50780581  0.14751720  0.64111626    -0.12000
C1136       C  0.50780587  0.14751790  0.60886304    -0.13500
C1137       C  0.73752122  0.26322319  0.74999708    -0.12000
C1138       C  0.73752099  0.23677653  0.74999703    -0.13500
C1139       C  0.73752440  0.23677538  0.99999643    -0.12000
C1140       C  0.73752464  0.26322203  0.99999672    -0.13500
C1141       C  0.74220081  0.35247956  0.85886935    -0.12000
C1142       C  0.74220069  0.35247891  0.89112255    -0.13500
C1143       C  0.74220039  0.35247907  0.64112259    -0.12000
C1144       C  0.74220018  0.35247913  0.60886936    -0.13500
C1145       C  0.51248061  0.23677342  0.74998881    -0.12000
C1146       C  0.51248085  0.26322007  0.74998903    -0.13500
C1147       C  0.51248582  0.23677454  0.99998895    -0.12000
C1148       C  0.51248633  0.26322119  0.99998923    -0.13500
C1149       C  0.50780437  0.35247635  0.85886377    -0.12000
C1150       C  0.50780449  0.35247712  0.89111697    -0.13500
C1151       C  0.50780555  0.35247693  0.60886376    -0.12000
C1152       C  0.50780531  0.35247696  0.64111697    -0.13500
O1153       O  0.49814185  0.54401910  0.02973841    -0.71600
O1154       O  0.49813971  0.95597641  0.02973867    -0.72600
O1155       O  0.57440434  0.99900661  0.02972402    -0.61200
O1156       O  0.92559564  0.49900618  0.02972386    -0.69700
O1157       O  0.92559535  0.49900608  0.47026097    -0.69200
O1158       O  0.57440488  0.99900653  0.47026118    -0.60500
O1159       O  0.99813977  0.95597674  0.47024540    -0.73000
O1160       O  0.99814186  0.54401876  0.47024518    -0.71800
Cu1161     Cu  0.50000005  0.99999791  0.03183442     1.04600
Cu1162     Cu  0.99999999  0.49999768  0.46815010     1.04300
C1163       C  0.49741486  0.55778249  0.99999159     0.94600
C1164       C  0.99741256  0.94221303  0.49999192     0.93700
C1165       C  0.59781190  0.50116222  0.99999280     0.85800
C1166       C  0.90218838  0.00116224  0.99999252     0.92100
O1167       O  0.49814500  0.95597530  0.27973871    -0.71600
O1168       O  0.49814718  0.54401822  0.27973837    -0.72600
O1169       O  0.92560151  0.00098844  0.27972388    -0.61200
O1170       O  0.57440994  0.99900561  0.27972388    -0.69700
O1171       O  0.57441030  0.99900567  0.22026103    -0.69200
O1172       O  0.92560114  0.00098845  0.22026103    -0.60500
O1173       O  0.49814718  0.54401791  0.22024513    -0.73000
O1174       O  0.49814531  0.95597549  0.22024548    -0.71800
Cu1175     Cu  0.50000565  0.99999681  0.28183436     1.04600
Cu1176     Cu  0.50000567  0.99999672  0.21814998     1.04300
C1177       C  0.49741754  0.94221180  0.24999203     0.94600
C1178       C  0.49741979  0.55778159  0.24999155     0.93700
C1179       C  0.90219394  0.00116161  0.24999257     0.85800
C1180       C  0.59781756  0.99883357  0.24999257     0.92100
O1181       O  0.82440488  0.00099014  0.02972444    -0.71600
O1182       O  0.67559561  0.99900703  0.02972469    -0.72600
O1183       O  0.75185825  0.95597761  0.02974033    -0.61200
O1184       O  0.75186080  0.54401991  0.02974025    -0.69700
O1185       O  0.75186079  0.54402025  0.47024703    -0.69200
O1186       O  0.75185827  0.95597737  0.47024717    -0.60500
O1187       O  0.67559588  0.99900698  0.47026176    -0.73000
O1188       O  0.82440444  0.00099028  0.47026151    -0.71800
Cu1189     Cu  0.75000030  0.99999861  0.03183553     1.04600
Cu1190     Cu  0.75000010  0.99999871  0.46815121     1.04300
C1191       C  0.84781209  0.00116266  0.49999280     0.94600
C1192       C  0.65218836  0.99883432  0.49999309     0.93700
C1193       C  0.75258565  0.94221393  0.49999394     0.85800
C1194       C  0.75258859  0.55778365  0.49999380     0.92100
O1195       O  0.75186356  0.95597883  0.27974038    -0.71600
O1196       O  0.75186631  0.54402094  0.27974006    -0.72600
O1197       O  0.67560108  0.50099099  0.27972442    -0.61200
O1198       O  0.82441018  0.49900797  0.27972442    -0.69700
O1199       O  0.82440984  0.49900785  0.22026156    -0.69200
O1200       O  0.67560139  0.50099087  0.22026156    -0.60500
O1201       O  0.75186631  0.54402115  0.22024684    -0.73000
O1202       O  0.75186386  0.95597847  0.22024712    -0.71800
Cu1203     Cu  0.75000569  0.49999972  0.28183544     1.04600
Cu1204     Cu  0.75000587  0.99999978  0.21815105     1.04300
C1205       C  0.75259065  0.94221513  0.24999395     0.94600
C1206       C  0.75259362  0.55778465  0.24999355     0.93700
C1207       C  0.65219380  0.50116307  0.24999288     0.85800
C1208       C  0.84781738  0.49883476  0.24999288     0.92100
O1209       O  0.95351672  0.89728650  0.49999105    -0.71600
O1210       O  0.94844793  0.80920112  0.49998993    -0.72600
O1211       O  0.95092938  0.85326219  0.05369803    -0.61200
O1212       O  0.95092898  0.85326306  0.44628291    -0.69700
O1213       O  0.53350612  0.85167943  0.44627436    -0.69200
O1214       O  0.53350646  0.85167880  0.05370619    -0.60500
O1215       O  0.53102246  0.80768513  0.49998987    -0.73000
O1216       O  0.53609756  0.89566610  0.49999095    -0.71800
Cu1217     Cu  0.94803982  0.85331392  0.49999047     1.04600
Cu1218     Cu  0.53643669  0.85161762  0.49999028     1.04300
C1219       C  0.49559433  0.91023859  0.49999144     0.94600
C1220       C  0.48901581  0.79468447  0.49998968     0.93700
C1221       C  0.49221319  0.85247374  0.07048520     0.85800
C1222       C  0.49221269  0.85247438  0.42949554     0.92100
O1223       O  0.95351921  0.89728607  0.24999107    -0.71600
O1224       O  0.94844490  0.80920067  0.24998969    -0.72600
O1225       O  0.95092863  0.85326177  0.30369786    -0.61200
O1226       O  0.95092907  0.85326282  0.19628265    -0.69700
O1227       O  0.53350610  0.85167764  0.19627463    -0.69200
O1228       O  0.53350570  0.85167660  0.30370638    -0.60500
O1229       O  0.53101935  0.80768314  0.24998995    -0.73000
O1230       O  0.53609996  0.89566404  0.24999133    -0.71800
Cu1231     Cu  0.94803944  0.85331351  0.24999030     1.04600
Cu1232     Cu  0.53643628  0.85161547  0.24999056     1.04300
C1233       C  0.49559761  0.91023734  0.24999162     0.94600
C1234       C  0.48901200  0.79468326  0.24998954     0.93700
C1235       C  0.49221236  0.85247258  0.32048520     0.85800
C1236       C  0.49221291  0.85247364  0.17949555     0.92100
O1237       O  0.80156090  0.80920440  0.49999663    -0.71600
O1238       O  0.79648457  0.89728961  0.49999507    -0.72600
O1239       O  0.79907617  0.85326636  0.05370351    -0.61200
O1240       O  0.79907642  0.85326566  0.44628846    -0.69700
O1241       O  0.71649937  0.85167828  0.44627990    -0.69200
O1242       O  0.71649911  0.85167895  0.05371185    -0.60500
O1243       O  0.71390382  0.89566516  0.49999501    -0.73000
O1244       O  0.71898645  0.80768471  0.49999636    -0.71800
Cu1245     Cu  0.80196549  0.85331728  0.49999600     1.04600
Cu1246     Cu  0.71356860  0.85161680  0.49999582     1.04300
C1247       C  0.76099384  0.79468594  0.49999659     0.94600
C1248       C  0.75440598  0.91023961  0.49999451     0.93700
C1249       C  0.75779241  0.85247605  0.07049078     0.85800
C1250       C  0.75779275  0.85247542  0.42950108     0.92100
O1251       O  0.79907675  0.85326611  0.19628832    -0.71600
O1252       O  0.79907697  0.85326702  0.30370346    -0.72600
O1253       O  0.80155946  0.80920501  0.24999669    -0.61200
O1254       O  0.79648737  0.89729014  0.24999506    -0.69700
O1255       O  0.71390655  0.89566708  0.24999509    -0.69200
O1256       O  0.71898496  0.80768651  0.24999668    -0.60500
O1257       O  0.71649985  0.85168076  0.30371187    -0.73000
O1258       O  0.71649963  0.85168002  0.19628005    -0.71800
Cu1259     Cu  0.80196616  0.85331786  0.24999590     1.04600
Cu1260     Cu  0.71356925  0.85161872  0.24999593     1.04300
C1261       C  0.75779293  0.85247629  0.17950109     0.94600
C1262       C  0.75779321  0.85247713  0.32049076     0.93700
C1263       C  0.76099179  0.79468713  0.24999693     0.85800
C1264       C  0.75440944  0.91024082  0.24999461     0.92100
O1265       O  0.53102166  0.69231107  0.49998892    -0.71600
O1266       O  0.53609907  0.60433053  0.49999030    -0.72600
O1267       O  0.53350599  0.64831677  0.44627362    -0.61200
O1268       O  0.53350662  0.64831748  0.05370547    -0.69700
O1269       O  0.95092947  0.64673166  0.05369729    -0.69200
O1270       O  0.95092898  0.64673095  0.44628215    -0.60500
O1271       O  0.95351824  0.60270768  0.49999049    -0.73000
O1272       O  0.94844715  0.69079296  0.49998911    -0.71800
Cu1273     Cu  0.53643692  0.64837886  0.49998959     1.04600
Cu1274     Cu  0.94803997  0.64668009  0.49998969     1.04300
C1275       C  0.48901497  0.70531063  0.49998889     0.94600
C1276       C  0.49559610  0.58975687  0.49999090     0.93700
C1277       C  0.49221255  0.64752043  0.42949479     0.85800
C1278       C  0.49221333  0.64752117  0.07048447     0.92100
O1279       O  0.94844434  0.69079099  0.24998896    -0.71600
O1280       O  0.95352106  0.60270588  0.24999025    -0.72600
O1281       O  0.95092885  0.64672969  0.30369708    -0.61200
O1282       O  0.95092940  0.64672920  0.19628197    -0.69700
O1283       O  0.53350642  0.64831658  0.19627386    -0.69200
O1284       O  0.53350588  0.64831724  0.30370567    -0.60500
O1285       O  0.53610158  0.60433034  0.24999054    -0.73000
O1286       O  0.53101874  0.69231076  0.24998920    -0.71800
Cu1287     Cu  0.94803993  0.64667811  0.24998951     1.04600
Cu1288     Cu  0.53643657  0.64837864  0.24998977     1.04300
C1289       C  0.48901133  0.70530949  0.24998898     0.94600
C1290       C  0.49559946  0.58975590  0.24999088     0.93700
C1291       C  0.49221250  0.64752019  0.32048448     0.85800
C1292       C  0.49221322  0.64751970  0.17949482     0.92100
O1293       O  0.71898610  0.69231212  0.49999587    -0.71600
O1294       O  0.71390609  0.60433130  0.49999483    -0.72600
O1295       O  0.71650009  0.64831788  0.05371135    -0.61200
O1296       O  0.71649980  0.64831852  0.44627963    -0.69700
O1297       O  0.79907687  0.64673357  0.44628779    -0.69200
O1298       O  0.79907711  0.64673292  0.05370294    -0.60500
O1299       O  0.79648683  0.60270941  0.49999473    -0.73000
O1300       O  0.80156054  0.69079475  0.49999581    -0.71800
Cu1301     Cu  0.71356953  0.64837975  0.49999550     1.04600
Cu1302     Cu  0.80196635  0.64668189  0.49999529     1.04300
C1303       C  0.76099337  0.70531210  0.49999607     0.94600
C1304       C  0.75440853  0.58975808  0.49999435     0.93700
C1305       C  0.75779343  0.64752227  0.07049025     0.85800
C1306       C  0.75779303  0.64752282  0.42950062     0.92100
O1307       O  0.71650009  0.64831806  0.30371124    -0.71600
O1308       O  0.71650062  0.64831931  0.19627948    -0.72600
O1309       O  0.71390894  0.60433171  0.24999452    -0.61200
O1310       O  0.71898457  0.69231271  0.24999613    -0.69700
O1311       O  0.80155908  0.69079656  0.24999640    -0.69200
O1312       O  0.79648975  0.60271119  0.24999458    -0.60500
O1313       O  0.79907776  0.64673557  0.19628789    -0.73000
O1314       O  0.79907721  0.64673428  0.30370315    -0.71800
Cu1315     Cu  0.71356992  0.64838019  0.24999536     1.04600
Cu1316     Cu  0.80196678  0.64668379  0.24999557     1.04300
C1317       C  0.75779331  0.64752278  0.32049029     0.94600
C1318       C  0.75779395  0.64752412  0.17950058     0.93700
C1319       C  0.75441208  0.58975915  0.24999403     0.85800
C1320       C  0.76099131  0.70531329  0.24999649     0.92100
C1321       C  0.75780442  0.64751975  0.39112206    -0.12000
C1322       C  0.75780454  0.64751962  0.35886885    -0.13500
C1323       C  0.75780533  0.64752060  0.14112202    -0.12000
C1324       C  0.75780509  0.64751983  0.10886881    -0.13500
C1325       C  0.49220083  0.64751716  0.39111624    -0.12000
C1326       C  0.49220080  0.64751716  0.35886304    -0.13500
C1327       C  0.49220189  0.64751709  0.14111626    -0.12000
C1328       C  0.49220193  0.64751765  0.10886304    -0.13500
C1329       C  0.76248098  0.76322355  0.24999721    -0.12000
C1330       C  0.76248059  0.73677690  0.24999698    -0.13500
C1331       C  0.76248376  0.73677572  0.49999655    -0.12000
C1332       C  0.76248420  0.76322237  0.49999667    -0.13500
C1333       C  0.75780470  0.85247975  0.35886931    -0.12000
C1334       C  0.75780442  0.85247905  0.39112252    -0.13500
C1335       C  0.75780425  0.85247926  0.14112254    -0.12000
C1336       C  0.75780395  0.85247926  0.10886933    -0.13500
C1337       C  0.48752084  0.73677304  0.24998888    -0.12000
C1338       C  0.48752141  0.76321968  0.24998900    -0.13500
C1339       C  0.48752617  0.73677421  0.49998884    -0.12000
C1340       C  0.48752679  0.76322086  0.49998914    -0.13500
C1341       C  0.49220085  0.85247619  0.35886376    -0.12000
C1342       C  0.49220098  0.85247687  0.39111698    -0.13500
C1343       C  0.49220185  0.85247672  0.10886376    -0.12000
C1344       C  0.49220172  0.85247680  0.14111697    -0.13500
O1345       O  0.49814168  0.54401911  0.52973839    -0.71600
O1346       O  0.49813979  0.95597648  0.52973863    -0.72600
O1347       O  0.57440438  0.99900664  0.52972403    -0.61200
O1348       O  0.92559571  0.49900622  0.52972380    -0.69700
O1349       O  0.92559539  0.49900615  0.97026099    -0.69200
O1350       O  0.57440485  0.99900658  0.97026117    -0.60500
O1351       O  0.99813984  0.95597676  0.97024543    -0.73000
O1352       O  0.99814199  0.54401877  0.97024517    -0.71800
Cu1353     Cu  0.50000012  0.99999795  0.53183430     1.04600
Cu1354     Cu  0.00000002  0.49999770  0.96815000     1.04300
C1355       C  0.49741479  0.55778249  0.49999158     0.94600
C1356       C  0.99741255  0.94221300  0.99999191     0.93700
C1357       C  0.59781193  0.50116226  0.49999276     0.85800
C1358       C  0.90218839  0.00116223  0.49999246     0.92100
O1359       O  0.49814506  0.95597532  0.77973870    -0.71600
O1360       O  0.49814727  0.54401823  0.77973834    -0.72600
O1361       O  0.92560156  0.00098849  0.77972391    -0.61200
O1362       O  0.57441001  0.99900564  0.77972393    -0.69700
O1363       O  0.57441037  0.99900569  0.72026107    -0.69200
O1364       O  0.92560123  0.00098836  0.72026105    -0.60500
O1365       O  0.49814727  0.54401787  0.72024509    -0.73000
O1366       O  0.49814509  0.95597555  0.72024549    -0.71800
Cu1367     Cu  0.50000572  0.99999683  0.78183443     1.04600
Cu1368     Cu  0.50000572  0.99999674  0.71815005     1.04300
C1369       C  0.49741737  0.94221185  0.74999200     0.94600
C1370       C  0.49741992  0.55778157  0.74999151     0.93700
C1371       C  0.90219400  0.00116160  0.74999259     0.85800
C1372       C  0.59781761  0.99883358  0.74999261     0.92100
O1373       O  0.82440492  0.00099015  0.52972437    -0.71600
O1374       O  0.67559566  0.99900706  0.52972462    -0.72600
O1375       O  0.75185832  0.95597756  0.52974041    -0.61200
O1376       O  0.75186086  0.54401987  0.52974026    -0.69700
O1377       O  0.75186090  0.54402026  0.97024705    -0.69200
O1378       O  0.75185831  0.95597730  0.97024711    -0.60500
O1379       O  0.67559596  0.99900703  0.97026186    -0.73000
O1380       O  0.82440437  0.00099018  0.97026160    -0.71800
Cu1381     Cu  0.75000036  0.99999863  0.53183559     1.04600
Cu1382     Cu  0.75000015  0.99999871  0.96815128     1.04300
C1383       C  0.84781205  0.00116263  0.99999289     0.94600
C1384       C  0.65218836  0.99883434  0.99999316     0.93700
C1385       C  0.75258560  0.94221392  0.99999391     0.85800
C1386       C  0.75258864  0.55778366  0.99999380     0.92100
O1387       O  0.75186357  0.95597879  0.77974033    -0.71600
O1388       O  0.75186610  0.54402089  0.77974007    -0.72600
O1389       O  0.67560103  0.50099102  0.77972444    -0.61200
O1390       O  0.82441017  0.49900787  0.77972449    -0.69700
O1391       O  0.82440980  0.49900792  0.72026165    -0.69200
O1392       O  0.67560139  0.50099090  0.72026159    -0.60500
O1393       O  0.75186606  0.54402118  0.72024686    -0.73000
O1394       O  0.75186357  0.95597848  0.72024709    -0.71800
Cu1395     Cu  0.75000552  0.49999972  0.78183550     1.04600
Cu1396     Cu  0.75000570  0.99999978  0.71815113     1.04300
C1397       C  0.75259058  0.94221510  0.74999391     0.94600
C1398       C  0.75259346  0.55778463  0.74999358     0.93700
C1399       C  0.65219380  0.50116311  0.74999290     0.85800
C1400       C  0.84781739  0.49883476  0.74999297     0.92100
O1401       O  0.95351682  0.89728639  0.99999112    -0.71600
O1402       O  0.94844798  0.80920111  0.99999003    -0.72600
O1403       O  0.95092936  0.85326224  0.55369806    -0.61200
O1404       O  0.95092906  0.85326304  0.94628294    -0.69700
O1405       O  0.53350612  0.85167947  0.94627437    -0.69200
O1406       O  0.53350651  0.85167878  0.55370623    -0.60500
O1407       O  0.53102242  0.80768512  0.99998980    -0.73000
O1408       O  0.53609766  0.89566611  0.99999084    -0.71800
Cu1409     Cu  0.94803990  0.85331382  0.99999053     1.04600
Cu1410     Cu  0.53643675  0.85161764  0.99999029     1.04300
C1411       C  0.49559439  0.91023854  0.99999138     0.94600
C1412       C  0.48901576  0.79468446  0.99998971     0.93700
C1413       C  0.49221325  0.85247370  0.57048524     0.85800
C1414       C  0.49221270  0.85247441  0.92949555     0.92100
O1415       O  0.95351909  0.89728612  0.74999098    -0.71600
O1416       O  0.94844483  0.80920070  0.74998964    -0.72600
O1417       O  0.95092858  0.85326182  0.80369792    -0.61200
O1418       O  0.95092912  0.85326286  0.69628268    -0.69700
O1419       O  0.53350618  0.85167768  0.69627461    -0.69200
O1420       O  0.53350573  0.85167664  0.80370638    -0.60500
O1421       O  0.53101938  0.80768311  0.74998990    -0.73000
O1422       O  0.53609980  0.89566408  0.74999124    -0.71800
Cu1423     Cu  0.94803948  0.85331355  0.74999032     1.04600
Cu1424     Cu  0.53643633  0.85161550  0.74999056     1.04300
C1425       C  0.49559741  0.91023738  0.74999153     0.94600
C1426       C  0.48901201  0.79468327  0.74998953     0.93700
C1427       C  0.49221238  0.85247262  0.82048522     0.85800
C1428       C  0.49221299  0.85247368  0.67949554     0.92100
O1429       O  0.80156083  0.80920439  0.99999665    -0.71600
O1430       O  0.79648447  0.89728963  0.99999510    -0.72600
O1431       O  0.79907621  0.85326638  0.55370349    -0.61200
O1432       O  0.79907653  0.85326571  0.94628840    -0.69700
O1433       O  0.71649948  0.85167833  0.94627998    -0.69200
O1434       O  0.71649915  0.85167897  0.55371185    -0.60500
O1435       O  0.71390372  0.89566518  0.99999512    -0.73000
O1436       O  0.71898640  0.80768467  0.99999645    -0.71800
Cu1437     Cu  0.80196553  0.85331731  0.99999593     1.04600
Cu1438     Cu  0.71356865  0.85161681  0.99999589     1.04300
C1439       C  0.76099377  0.79468591  0.99999668     0.94600
C1440       C  0.75440589  0.91023962  0.99999461     0.93700
C1441       C  0.75779248  0.85247609  0.57049078     0.85800
C1442       C  0.75779280  0.85247546  0.92950110     0.92100
O1443       O  0.79907667  0.85326595  0.69628842    -0.71600
O1444       O  0.79907703  0.85326688  0.80370353    -0.72600
O1445       O  0.80155944  0.80920491  0.74999675    -0.61200
O1446       O  0.79648731  0.89729006  0.74999498    -0.69700
O1447       O  0.71390653  0.89566703  0.74999517    -0.69200
O1448       O  0.71898496  0.80768654  0.74999673    -0.60500
O1449       O  0.71649994  0.85168082  0.80371189    -0.73000
O1450       O  0.71649958  0.85167993  0.69628011    -0.71800
Cu1451     Cu  0.80196598  0.85331771  0.74999597     1.04600
Cu1452     Cu  0.71356929  0.85161871  0.74999600     1.04300
C1453       C  0.75779288  0.85247623  0.67950116     0.94600
C1454       C  0.75779327  0.85247712  0.82049081     0.93700
C1455       C  0.76099176  0.79468710  0.74999688     0.85800
C1456       C  0.75440939  0.91024078  0.74999458     0.92100
O1457       O  0.53102174  0.69231110  0.99998895    -0.71600
O1458       O  0.53609917  0.60433050  0.99999027    -0.72600
O1459       O  0.53350607  0.64831682  0.94627359    -0.61200
O1460       O  0.53350670  0.64831750  0.55370553    -0.69700
O1461       O  0.95092944  0.64673168  0.55369723    -0.69200
O1462       O  0.95092893  0.64673100  0.94628221    -0.60500
O1463       O  0.95351833  0.60270771  0.99999054    -0.73000
O1464       O  0.94844720  0.69079296  0.99998921    -0.71800
Cu1465     Cu  0.53643699  0.64837887  0.99998951     1.04600
Cu1466     Cu  0.94804003  0.64668012  0.99998978     1.04300
C1467       C  0.48901504  0.70531066  0.99998898     0.94600
C1468       C  0.49559618  0.58975686  0.99999091     0.93700
C1469       C  0.49221262  0.64752047  0.92949480     0.85800
C1470       C  0.49221338  0.64752121  0.57048447     0.92100
O1471       O  0.94844441  0.69079100  0.74998904    -0.71600
O1472       O  0.95352091  0.60270582  0.74999036    -0.72600
O1473       O  0.95092883  0.64672972  0.80369711    -0.61200
O1474       O  0.95092942  0.64672923  0.69628200    -0.69700
O1475       O  0.53350634  0.64831663  0.69627381    -0.69200
O1476       O  0.53350578  0.64831727  0.80370567    -0.60500
O1477       O  0.53610164  0.60433034  0.74999044    -0.73000
O1478       O  0.53101881  0.69231080  0.74998930    -0.71800
Cu1479     Cu  0.94803998  0.64667813  0.74998959     1.04600
Cu1480     Cu  0.53643662  0.64837868  0.74998981     1.04300
C1481       C  0.48901140  0.70530952  0.74998902     0.94600
C1482       C  0.49559954  0.58975587  0.74999086     0.93700
C1483       C  0.49221241  0.64752023  0.82048448     0.85800
C1484       C  0.49221312  0.64751974  0.67949479     0.92100
O1485       O  0.71898617  0.69231212  0.99999590    -0.71600
O1486       O  0.71390616  0.60433131  0.99999480    -0.72600
O1487       O  0.71650015  0.64831792  0.55371145    -0.61200
O1488       O  0.71649986  0.64831859  0.94627950    -0.69700
O1489       O  0.79907688  0.64673346  0.94628782    -0.69200
O1490       O  0.79907719  0.64673279  0.55370289    -0.60500
O1491       O  0.79648686  0.60270943  0.99999482    -0.73000
O1492       O  0.80156057  0.69079474  0.99999588    -0.71800
Cu1493     Cu  0.71356959  0.64837977  0.99999539     1.04600
Cu1494     Cu  0.80196616  0.64668191  0.99999538     1.04300
C1495       C  0.76099343  0.70531209  0.99999610     0.94600
C1496       C  0.75440859  0.58975809  0.99999435     0.93700
C1497       C  0.75779354  0.64752226  0.57049028     0.85800
C1498       C  0.75779313  0.64752277  0.92950056     0.92100
O1499       O  0.71650015  0.64831796  0.80371129    -0.71600
O1500       O  0.71650051  0.64831924  0.69627956    -0.72600
O1501       O  0.71390882  0.60433170  0.74999444    -0.61200
O1502       O  0.71898462  0.69231271  0.74999626    -0.69700
O1503       O  0.80155912  0.69079656  0.74999625    -0.69200
O1504       O  0.79648963  0.60271118  0.74999464    -0.60500
O1505       O  0.79907764  0.64673560  0.69628791    -0.73000
O1506       O  0.79907728  0.64673435  0.80370306    -0.71800
Cu1507     Cu  0.71356997  0.64838019  0.74999543     1.04600
Cu1508     Cu  0.80196681  0.64668381  0.74999547     1.04300
C1509       C  0.75779342  0.64752277  0.82049027     0.94600
C1510       C  0.75779384  0.64752411  0.67950064     0.93700
C1511       C  0.75441197  0.58975914  0.74999408     0.85800
C1512       C  0.76099134  0.70531328  0.74999653     0.92100
C1513       C  0.75780458  0.64751965  0.89112202    -0.12000
C1514       C  0.75780471  0.64751962  0.85886882    -0.13500
C1515       C  0.75780530  0.64752065  0.64112207    -0.12000
C1516       C  0.75780524  0.64751988  0.60886886    -0.13500
C1517       C  0.49220089  0.64751721  0.89111624    -0.12000
C1518       C  0.49220078  0.64751720  0.85886302    -0.13500
C1519       C  0.49220180  0.64751713  0.64111622    -0.12000
C1520       C  0.49220192  0.64751769  0.60886302    -0.13500
C1521       C  0.76248087  0.76322354  0.74999708    -0.12000
C1522       C  0.76248054  0.73677690  0.74999702    -0.13500
C1523       C  0.76248379  0.73677568  0.99999648    -0.12000
C1524       C  0.76248413  0.76322234  0.99999671    -0.13500
C1525       C  0.75780471  0.85247979  0.85886935    -0.12000
C1526       C  0.75780442  0.85247909  0.89112255    -0.13500
C1527       C  0.75780430  0.85247930  0.64112259    -0.12000
C1528       C  0.75780408  0.85247931  0.60886936    -0.13500
C1529       C  0.48752091  0.73677306  0.74998882    -0.12000
C1530       C  0.48752136  0.76321970  0.74998903    -0.13500
C1531       C  0.48752618  0.73677422  0.99998895    -0.12000
C1532       C  0.48752664  0.76322087  0.99998923    -0.13500
C1533       C  0.49220081  0.85247623  0.85886377    -0.12000
C1534       C  0.49220094  0.85247691  0.89111697    -0.13500
C1535       C  0.49220193  0.85247672  0.60886379    -0.12000
C1536       C  0.49220180  0.85247684  0.64111700    -0.13500
loop_ 
_geom_bond_atom_site_label_1 
_geom_bond_atom_site_label_2 
_geom_bond_distance 
_geom_bond_site_symmetry_2 
_ccdc_geom_bond_type 
O1           C11   1.277   1_554  A
O1         Cu393   2.009   1_545  S
O2          C972   1.277   1_554  A
O2           Cu9   2.009   1_455  S
O3          C397   1.277   1_554  A
O3           Cu9   2.004   1_455  S
O4          C398   1.277   1_554  A
O4        Cu1161   2.004   1_545  S
O5          C590   1.277       .  A
O5          Cu10   2.004   1_545  S
O6          C589   1.277       .  A
O6        Cu1162   2.004   1_455  S
O7           C12   1.277       .  A
O7         Cu394   2.009       .  S
O8          C971   1.277       .  A
O8          Cu10   2.009   1_545  S
Cu9         O385   2.009       .  S
Cu9        O1156   2.004       .  S
Cu9       Cu1354   2.380   1_654  S
Cu10       O1158   2.004       .  S
Cu10        O391   2.009       .  S
Cu10      Cu1353   2.380       .  S
C11         O968   1.277       .  A
C11         C316   1.459       .  S
C12         O962   1.277       .  A
C12         C835   1.459       .  S
C13         O387   1.277   1_556  A
C13         O582   1.277       .  A
C13         C616   1.463       .  S
C14         O388   1.277   1_556  A
C14         O581   1.277       .  A
C14         C231   1.463       .  S
O15          C25   1.277       .  A
O15         Cu23   2.009       .  S
O16          C26   1.277       .  A
O16        Cu407   2.009   1_545  S
O17          C27   1.277       .  A
O17        Cu791   2.004       .  S
O18          C28   1.277       .  A
O18         Cu23   2.004       .  S
O19          C28   1.277       .  A
O19         Cu24   2.004       .  S
O20          C27   1.277       .  A
O20        Cu792   2.004       .  S
O21          C26   1.277       .  A
O21        Cu408   2.009   1_545  S
O22          C25   1.277       .  A
O22         Cu24   2.009       .  S
Cu23        O400   2.009   1_455  S
Cu23        O785   2.004   1_455  S
Cu23        Cu24   2.380       .  S
Cu24        O788   2.004   1_455  S
Cu24        O405   2.009   1_455  S
C25          C81   1.459       .  S
C26         C138   1.459       .  S
C27         C440   1.463       .  S
C28         C439   1.463       .  S
O29         C231   1.277   1_554  A
O29         Cu37   2.004       .  S
O30         C232   1.277   1_554  A
O30         Cu37   2.004       .  S
O31         C233   1.277   1_554  A
O31         Cu37   2.009       .  S
O32         C234   1.277   1_554  A
O32        Cu421   2.009   1_545  S
O33          C42   1.277       .  A
O33        Cu422   2.009   1_545  S
O34          C41   1.277       .  A
O34         Cu38   2.009       .  S
O35          C40   1.277       .  A
O35         Cu38   2.004       .  S
O36          C39   1.277       .  A
O36         Cu38   2.004       .  S
Cu37        O416   2.009       .  S
Cu37       Cu230   2.380   1_554  S
Cu38        O417   2.009       .  S
Cu38       Cu229   2.380       .  S
C39         O221   1.277       .  A
C39         C206   1.463       .  S
C40         O222   1.277       .  A
C40         C589   1.463       .  S
C41         O223   1.277       .  A
C41          C96   1.459       .  S
C42         O224   1.277       .  A
C42         C152   1.459       .  S
O43          C53   1.277       .  A
O43        Cu435   2.009       .  S
O44          C54   1.277       .  A
O44         Cu51   2.009   1_545  S
O45          C55   1.277       .  A
O45         Cu51   2.004       .  S
O46          C56   1.277       .  A
O46         Cu51   2.004   1_545  S
O47          C56   1.277       .  A
O47        Cu436   2.004   1_545  S
O48          C55   1.277       .  A
O48        Cu436   2.004       .  S
O49          C54   1.277       .  A
O49        Cu436   2.009   1_545  S
O50          C53   1.277       .  A
O50         Cu52   2.009       .  S
Cu51        O427   2.009       .  S
Cu51       Cu436   2.380       .  S
Cu52        O431   2.004       .  S
Cu52        O432   2.004       .  S
Cu52        O433   2.009       .  S
Cu52       Cu435   2.380       .  S
C53         C112   1.459       .  S
C54         C167   1.459       .  S
C55         C412   1.463       .  S
C56         C411   1.463       .  S
O57         C835   1.276       .  A
O57         Cu65   2.009       .  S
O58         C836   1.276       .  A
O58         Cu65   2.009       .  S
O59         C837   1.276       .  A
O59        Cu257   2.009   1_554  S
O60         C838   1.276       .  A
O60         Cu65   2.009       .  S
O61          C70   1.276       .  A
O61         Cu66   2.009       .  S
O62          C69   1.276       .  A
O62        Cu258   2.009   1_554  S
O63          C68   1.277       .  A
O63         Cu66   2.011       .  S
O64          C67   1.277       .  A
O64         Cu66   2.010       .  S
Cu65        O251   2.009       .  S
Cu65       Cu834   2.380       .  S
Cu66        O254   2.009       .  S
Cu66       Cu833   2.380   1_455  S
C67         O825   1.276   1_455  A
C67         C780   1.459       .  S
C68         O826   1.276   1_455  A
C68         C188   1.435       .  S
C69         O827   1.276   1_455  A
C69         C191   1.434       .  S
C70         O828   1.276   1_455  A
C70         C190   1.434       .  S
O71         C849   1.276       .  A
O71         Cu79   2.009       .  S
O72         C850   1.276       .  A
O72         Cu79   2.009       .  S
O73         C851   1.276       .  A
O73         Cu79   2.009       .  S
O74         C852   1.276       .  A
O74         Cu79   2.009       .  S
O75          C84   1.276       .  A
O75         Cu80   2.009       .  S
O76          C83   1.276       .  A
O76         Cu80   2.009       .  S
O77          C82   1.277       .  A
O77         Cu80   2.011       .  S
O78          C81   1.277       .  A
O78         Cu80   2.010       .  S
Cu79       Cu848   2.380       .  S
Cu80       Cu847   2.380   1_455  S
C81         O839   1.276   1_455  A
C82         O840   1.276   1_455  A
C82         C186   1.435       .  S
C83         O841   1.276   1_455  A
C83         C189   1.434       .  S
C84         O842   1.276   1_455  A
C84         C192   1.434       .  S
O85          C95   1.276       .  A
O85         Cu93   2.009       .  S
O86          C96   1.276       .  A
O86         Cu93   2.009       .  S
O87          C97   1.276       .  A
O87        Cu285   2.009   1_554  S
O88          C98   1.276       .  A
O88         Cu93   2.009       .  S
O89          C98   1.276       .  A
O89         Cu94   2.009       .  S
O90          C97   1.276       .  A
O90        Cu286   2.009   1_554  S
O91          C96   1.277       .  A
O91         Cu94   2.010       .  S
O92          C95   1.277       .  A
O92         Cu94   2.011       .  S
Cu93        O279   2.009       .  S
Cu93        Cu94   2.380       .  S
Cu94        O282   2.009       .  S
C95         C180   1.435       .  S
C97         C184   1.434       .  S
C98         C182   1.434       .  S
O99         C109   1.276       .  A
O99        Cu107   2.009       .  S
O100        C110   1.276       .  A
O100       Cu107   2.009       .  S
O101        C111   1.276       .  A
O101       Cu107   2.009       .  S
O102        C112   1.276       .  A
O102       Cu107   2.009       .  S
O103        C112   1.277       .  A
O103       Cu108   2.010       .  S
O104        C111   1.277       .  A
O104       Cu108   2.011       .  S
O105        C110   1.276       .  A
O105       Cu108   2.009       .  S
O106        C109   1.276       .  A
O106       Cu108   2.009       .  S
Cu107      Cu108   2.380       .  S
C109        C183   1.434       .  S
C110        C181   1.434       .  S
C111        C177   1.435       .  S
O113        C123   1.277       .  A
O113       Cu121   2.011       .  S
O114        C124   1.277       .  A
O114       Cu121   2.010       .  S
O115        C125   1.276       .  A
O115       Cu121   2.009       .  S
O116        C126   1.276       .  A
O116       Cu313   2.009   1_554  S
O117        C894   1.276       .  A
O117       Cu314   2.009   1_554  S
O118        C893   1.276       .  A
O118       Cu122   2.009       .  S
O119        C892   1.276       .  A
O119       Cu122   2.009       .  S
O120        C891   1.276       .  A
O120       Cu122   2.009       .  S
Cu121       O308   2.009       .  S
Cu121      Cu890   2.380   1_455  S
Cu122       O309   2.009       .  S
Cu122      Cu889   2.380       .  S
C123        O888   1.276   1_455  A
C123        C187   1.435       .  S
C124        O887   1.276   1_455  A
C124        C203   1.459       .  S
C125        O886   1.276   1_455  A
C125        C173   1.434       .  S
C126        O885   1.276   1_455  A
C126        C176   1.434       .  S
O127        C905   1.276       .  A
O127       Cu135   2.009       .  S
O128        C906   1.276       .  A
O128       Cu135   2.009       .  S
O129        C907   1.276       .  A
O129       Cu135   2.009       .  S
O130        C908   1.276       .  A
O130       Cu135   2.009       .  S
O131        C140   1.276       .  A
O131       Cu136   2.009       .  S
O132        C139   1.276       .  A
O132       Cu136   2.009       .  S
O133        C138   1.277       .  A
O133       Cu136   2.010       .  S
O134        C137   1.277       .  A
O134       Cu136   2.011       .  S
Cu135      Cu904   2.380       .  S
Cu136      Cu903   2.380   1_455  S
C137        O895   1.276   1_455  A
C137        C185   1.435       .  S
C138        O896   1.276   1_455  A
C139        O897   1.276   1_455  A
C139        C174   1.434       .  S
C140        O898   1.276   1_455  A
C140        C175   1.434       .  S
O141        C151   1.277       .  A
O141       Cu149   2.011       .  S
O142        C152   1.277       .  A
O142       Cu149   2.010       .  S
O143        C153   1.276       .  A
O143       Cu341   2.009   1_554  S
O144        C154   1.276       .  A
O144       Cu149   2.009       .  S
O145        C154   1.276       .  A
O145       Cu150   2.009       .  S
O146        C153   1.276       .  A
O146       Cu342   2.009   1_554  S
O147        C152   1.276       .  A
O147       Cu150   2.009       .  S
O148        C151   1.276       .  A
O148       Cu150   2.009       .  S
Cu149       O335   2.009       .  S
Cu149      Cu150   2.380       .  S
Cu150       O338   2.009       .  S
C151        C179   1.435       .  S
C153        C172   1.434       .  S
C154        C169   1.434       .  S
O155        C165   1.276       .  A
O155       Cu163   2.009       .  S
O156        C166   1.276       .  A
O156       Cu163   2.009       .  S
O157        C167   1.277       .  A
O157       Cu163   2.010       .  S
O158        C168   1.277       .  A
O158       Cu163   2.011       .  S
O159        C168   1.276       .  A
O159       Cu164   2.009       .  S
O160        C167   1.276       .  A
O160       Cu164   2.009       .  S
O161        C166   1.276       .  A
O161       Cu164   2.009       .  S
O162        C165   1.276       .  A
O162       Cu164   2.009       .  S
Cu163      Cu164   2.380       .  S
C165        C170   1.434       .  S
C166        C171   1.434       .  S
C168        C178   1.435       .  S
C169        C170   1.205       .  T
C171        C172   1.205       .  T
C173        C174   1.205       .  T
C175        C176   1.205       .  T
C177        C178   1.206       .  T
C179        C180   1.206       .  T
C181        C182   1.205       .  T
C183        C184   1.205       .  T
C185        C186   1.206       .  T
C187        C188   1.206       .  T
C189        C190   1.205       .  T
C191        C192   1.205       .  T
O193        C203   1.277       .  A
O193       Cu585   2.009   1_545  S
O194        C780   1.277       .  A
O194       Cu201   2.009   1_455  S
O195        C589   1.277       .  A
O195       Cu201   2.004   1_455  S
O196        C590   1.277       .  A
O196      Cu1353   2.004   1_545  S
O197        C398   1.277       .  A
O197       Cu202   2.004   1_545  S
O198        C397   1.277       .  A
O198      Cu1354   2.004       .  S
O199        C204   1.277       .  A
O199       Cu586   2.009       .  S
O200        C779   1.277       .  A
O200       Cu202   2.009   1_545  S
Cu201       O577   2.009       .  S
Cu201      O1348   2.004       .  S
Cu201     Cu1162   2.380       .  S
Cu202      O1350   2.004       .  S
Cu202       O583   2.009       .  S
Cu202     Cu1161   2.380   1_556  S
C203        O776   1.277       .  A
C204        O770   1.277   1_556  A
C204       C1027   1.459       .  S
C205        O579   1.277       .  A
C205        O390   1.277       .  A
C205        C424   1.463       .  S
C206        O580   1.277       .  A
C206        O389   1.277       .  A
O207        C217   1.277       .  A
O207       Cu215   2.009       .  S
O208        C218   1.277       .  A
O208       Cu599   2.009   1_545  S
O209        C219   1.277       .  A
O209       Cu983   2.004       .  S
O210        C220   1.277       .  A
O210       Cu215   2.004       .  S
O211        C220   1.277       .  A
O211       Cu216   2.004       .  S
O212        C219   1.277       .  A
O212       Cu984   2.004       .  S
O213        C218   1.277       .  A
O213       Cu600   2.009   1_545  S
O214        C217   1.277       .  A
O214       Cu216   2.009       .  S
Cu215       O592   2.009   1_455  S
Cu215       O977   2.004   1_455  S
Cu215      Cu216   2.380       .  S
Cu216       O980   2.004   1_455  S
Cu216       O597   2.009   1_455  S
C217        C273   1.459       .  S
C218        C330   1.459       .  S
C219        C632   1.463       .  S
C220        C631   1.463       .  S
O221       Cu229   2.004       .  S
O222       Cu229   2.004       .  S
O223       Cu229   2.009       .  S
O224       Cu613   2.009   1_545  S
O225        C234   1.277       .  A
O225       Cu614   2.009   1_545  S
O226        C233   1.277       .  A
O226       Cu230   2.009       .  S
O227        C232   1.277       .  A
O227       Cu230   2.004       .  S
O228        C231   1.277       .  A
O228       Cu230   2.004       .  S
Cu229       O608   2.009       .  S
Cu230       O609   2.009       .  S
C232        C397   1.463       .  S
C233        C288   1.459       .  S
C234        C344   1.459       .  S
O235        C245   1.277       .  A
O235       Cu627   2.009       .  S
O236        C246   1.277       .  A
O236       Cu243   2.009   1_545  S
O237        C247   1.277       .  A
O237       Cu243   2.004       .  S
O238        C248   1.277       .  A
O238       Cu243   2.004   1_545  S
O239        C248   1.277       .  A
O239       Cu628   2.004   1_545  S
O240        C247   1.277       .  A
O240       Cu628   2.004       .  S
O241        C246   1.277       .  A
O241       Cu628   2.009   1_545  S
O242        C245   1.277       .  A
O242       Cu244   2.009       .  S
Cu243       O619   2.009       .  S
Cu243      Cu628   2.380       .  S
Cu244       O623   2.004       .  S
Cu244       O624   2.004       .  S
Cu244       O625   2.009       .  S
Cu244      Cu627   2.380       .  S
C245        C304   1.459       .  S
C246        C359   1.459       .  S
C247        C604   1.463       .  S
C248        C603   1.463       .  S
O249       C1027   1.276       .  A
O249       Cu257   2.009       .  S
O250       C1028   1.276       .  A
O250       Cu257   2.009       .  S
O251       C1029   1.276       .  A
O252       C1030   1.276       .  A
O252       Cu257   2.009       .  S
O253        C262   1.276       .  A
O253       Cu258   2.009       .  S
O254        C261   1.276       .  A
O255        C260   1.277       .  A
O255       Cu258   2.011       .  S
O256        C259   1.277       .  A
O256       Cu258   2.010       .  S
Cu257     Cu1026   2.380       .  S
Cu258     Cu1025   2.380   1_455  S
C259       O1017   1.276   1_455  A
C259        C972   1.459       .  S
C260       O1018   1.276   1_455  A
C260        C380   1.435       .  S
C261       O1019   1.276   1_455  A
C261        C383   1.434       .  S
C262       O1020   1.276   1_455  A
C262        C382   1.434       .  S
O263       C1041   1.276       .  A
O263       Cu271   2.009       .  S
O264       C1042   1.276       .  A
O264       Cu271   2.009       .  S
O265       C1043   1.276       .  A
O265       Cu271   2.009       .  S
O266       C1044   1.276       .  A
O266       Cu271   2.009       .  S
O267        C276   1.276       .  A
O267       Cu272   2.009       .  S
O268        C275   1.276       .  A
O268       Cu272   2.009       .  S
O269        C274   1.277       .  A
O269       Cu272   2.011       .  S
O270        C273   1.277       .  A
O270       Cu272   2.010       .  S
Cu271     Cu1040   2.380       .  S
Cu272     Cu1039   2.380   1_455  S
C273       O1031   1.276   1_455  A
C274       O1032   1.276   1_455  A
C274        C378   1.435       .  S
C275       O1033   1.276   1_455  A
C275        C381   1.434       .  S
C276       O1034   1.276   1_455  A
C276        C384   1.434       .  S
O277        C287   1.276       .  A
O277       Cu285   2.009       .  S
O278        C288   1.276       .  A
O278       Cu285   2.009       .  S
O279        C289   1.276       .  A
O280        C290   1.276       .  A
O280       Cu285   2.009       .  S
O281        C290   1.276       .  A
O281       Cu286   2.009       .  S
O282        C289   1.276       .  A
O283        C288   1.277       .  A
O283       Cu286   2.010       .  S
O284        C287   1.277       .  A
O284       Cu286   2.011       .  S
Cu285      Cu286   2.380       .  S
C287        C372   1.435       .  S
C289        C376   1.434       .  S
C290        C374   1.434       .  S
O291        C301   1.276       .  A
O291       Cu299   2.009       .  S
O292        C302   1.276       .  A
O292       Cu299   2.009       .  S
O293        C303   1.276       .  A
O293       Cu299   2.009       .  S
O294        C304   1.276       .  A
O294       Cu299   2.009       .  S
O295        C304   1.277       .  A
O295       Cu300   2.010       .  S
O296        C303   1.277       .  A
O296       Cu300   2.011       .  S
O297        C302   1.276       .  A
O297       Cu300   2.009       .  S
O298        C301   1.276       .  A
O298       Cu300   2.009       .  S
Cu299      Cu300   2.380       .  S
C301        C375   1.434       .  S
C302        C373   1.434       .  S
C303        C369   1.435       .  S
O305        C315   1.277       .  A
O305       Cu313   2.011       .  S
O306        C316   1.277       .  A
O306       Cu313   2.010       .  S
O307        C317   1.276       .  A
O307       Cu313   2.009       .  S
O308        C318   1.276       .  A
O309       C1086   1.276       .  A
O310       C1085   1.276       .  A
O310       Cu314   2.009       .  S
O311       C1084   1.276       .  A
O311       Cu314   2.009       .  S
O312       C1083   1.276       .  A
O312       Cu314   2.009       .  S
Cu313     Cu1082   2.380   1_455  S
Cu314     Cu1081   2.380       .  S
C315       O1080   1.276   1_455  A
C315        C379   1.435       .  S
C316       O1079   1.276   1_455  A
C317       O1078   1.276   1_455  A
C317        C365   1.434       .  S
C318       O1077   1.276   1_455  A
C318        C368   1.434       .  S
O319       C1097   1.276       .  A
O319       Cu327   2.009       .  S
O320       C1098   1.276       .  A
O320       Cu327   2.009       .  S
O321       C1099   1.276       .  A
O321       Cu327   2.009       .  S
O322       C1100   1.276       .  A
O322       Cu327   2.009       .  S
O323        C332   1.276       .  A
O323       Cu328   2.009       .  S
O324        C331   1.276       .  A
O324       Cu328   2.009       .  S
O325        C330   1.277       .  A
O325       Cu328   2.010       .  S
O326        C329   1.277       .  A
O326       Cu328   2.011       .  S
Cu327     Cu1096   2.380       .  S
Cu328     Cu1095   2.380   1_455  S
C329       O1087   1.276   1_455  A
C329        C377   1.435       .  S
C330       O1088   1.276   1_455  A
C331       O1089   1.276   1_455  A
C331        C366   1.434       .  S
C332       O1090   1.276   1_455  A
C332        C367   1.434       .  S
O333        C343   1.277       .  A
O333       Cu341   2.011       .  S
O334        C344   1.277       .  A
O334       Cu341   2.010       .  S
O335        C345   1.276       .  A
O336        C346   1.276       .  A
O336       Cu341   2.009       .  S
O337        C346   1.276       .  A
O337       Cu342   2.009       .  S
O338        C345   1.276       .  A
O339        C344   1.276       .  A
O339       Cu342   2.009       .  S
O340        C343   1.276       .  A
O340       Cu342   2.009       .  S
Cu341      Cu342   2.380       .  S
C343        C371   1.435       .  S
C345        C364   1.434       .  S
C346        C361   1.434       .  S
O347        C357   1.276       .  A
O347       Cu355   2.009       .  S
O348        C358   1.276       .  A
O348       Cu355   2.009       .  S
O349        C359   1.277       .  A
O349       Cu355   2.010       .  S
O350        C360   1.277       .  A
O350       Cu355   2.011       .  S
O351        C360   1.276       .  A
O351       Cu356   2.009       .  S
O352        C359   1.276       .  A
O352       Cu356   2.009       .  S
O353        C358   1.276       .  A
O353       Cu356   2.009       .  S
O354        C357   1.276       .  A
O354       Cu356   2.009       .  S
Cu355      Cu356   2.380       .  S
C357        C362   1.434       .  S
C358        C363   1.434       .  S
C360        C370   1.435       .  S
C361        C362   1.205       .  T
C363        C364   1.205       .  T
C365        C366   1.205       .  T
C367        C368   1.205       .  T
C369        C370   1.206       .  T
C371        C372   1.206       .  T
C373        C374   1.205       .  T
C375        C376   1.205       .  T
C377        C378   1.206       .  T
C379        C380   1.206       .  T
C381        C382   1.205       .  T
C383        C384   1.205       .  T
O385        C395   1.277   1_554  A
O386       C1356   1.277   1_554  A
O386       Cu393   2.009   1_655  S
O387       Cu393   2.004       .  S
O388       Cu777   2.004       .  S
O389       Cu394   2.004       .  S
O390       Cu778   2.004       .  S
O391        C396   1.277       .  A
O392       C1355   1.277       .  A
O392       Cu394   2.009       .  S
Cu393       O772   2.004   1_465  S
Cu393      Cu970   2.380   1_554  S
Cu394       O774   2.004       .  S
Cu394      Cu969   2.380       .  S
C395       O1352   1.277       .  A
C395        C700   1.459       .  S
C396       O1346   1.277       .  A
C396       C1219   1.459       .  S
C398        C615   1.463       .  S
O399        C409   1.277       .  A
O399       Cu407   2.009   1_655  S
O400        C410   1.277       .  A
O401        C411   1.277       .  A
O401      Cu1175   2.004   1_545  S
O402        C412   1.277       .  A
O402       Cu407   2.004       .  S
O403        C412   1.277       .  A
O403       Cu408   2.004       .  S
O404        C411   1.277       .  A
O404      Cu1176   2.004   1_545  S
O405        C410   1.277       .  A
O406        C409   1.277       .  A
O406       Cu408   2.009   1_655  S
Cu407      O1169   2.004   1_465  S
Cu407      Cu408   2.380       .  S
Cu408      O1172   2.004   1_465  S
C409        C465   1.459       .  S
C410        C522   1.459       .  S
O413        C615   1.277   1_554  A
O413       Cu421   2.004   1_545  S
O414        C616   1.277   1_554  A
O414       Cu421   2.004       .  S
O415        C617   1.277   1_554  A
O415       Cu421   2.009       .  S
O416        C618   1.277   1_554  A
O417        C426   1.277       .  A
O418        C425   1.277       .  A
O418       Cu422   2.009       .  S
O419        C424   1.277       .  A
O419       Cu422   2.004       .  S
O420        C423   1.277       .  A
O420       Cu422   2.004   1_545  S
Cu421      Cu614   2.380   1_554  S
Cu422      Cu613   2.380       .  S
C423        O605   1.277       .  A
C423        C590   1.463       .  S
C424        O606   1.277       .  A
C425        O607   1.277       .  A
C425        C480   1.459       .  S
C426        O608   1.277       .  A
C426        C536   1.459       .  S
O427        C437   1.277       .  A
O428        C438   1.277       .  A
O428       Cu435   2.009       .  S
O429        C439   1.277       .  A
O429       Cu435   2.004       .  S
O430        C440   1.277       .  A
O430       Cu435   2.004       .  S
O431        C440   1.277       .  A
O432        C439   1.277       .  A
O433        C438   1.277       .  A
O434        C437   1.277       .  A
O434       Cu436   2.009       .  S
C437        C496   1.459       .  S
C438        C551   1.459       .  S
O441       C1219   1.277       .  A
O441       Cu449   2.010       .  S
O442       C1220   1.277       .  A
O442       Cu449   2.011       .  S
O443       C1221   1.276       .  A
O443       Cu641   2.009   1_554  S
O444       C1222   1.276       .  A
O444       Cu449   2.009       .  S
O445        C454   1.276   1_455  A
O445       Cu450   2.009       .  S
O446        C453   1.276   1_455  A
O446       Cu642   2.009   1_554  S
O447        C452   1.276   1_455  A
O447       Cu450   2.009       .  S
O448        C451   1.276   1_455  A
O448       Cu450   2.009       .  S
Cu449       O635   2.009       .  S
Cu449     Cu1218   2.380       .  S
Cu450       O638   2.009       .  S
Cu450     Cu1217   2.380   1_455  S
C451       O1209   1.277       .  A
C451       C1164   1.459       .  S
C452       O1210   1.277       .  A
C452        C572   1.435       .  S
C453       O1211   1.276       .  A
C453        C575   1.434       .  S
C454       O1212   1.276       .  A
C454        C574   1.434       .  S
O455       C1233   1.277       .  A
O455       Cu463   2.010       .  S
O456       C1234   1.277       .  A
O456       Cu463   2.011       .  S
O457       C1235   1.276       .  A
O457       Cu463   2.009       .  S
O458       C1236   1.276       .  A
O458       Cu463   2.009       .  S
O459        C468   1.276   1_455  A
O459       Cu464   2.009       .  S
O460        C467   1.276   1_455  A
O460       Cu464   2.009       .  S
O461        C466   1.276   1_455  A
O461       Cu464   2.009       .  S
O462        C465   1.276   1_455  A
O462       Cu464   2.009       .  S
Cu463     Cu1232   2.380       .  S
Cu464     Cu1231   2.380   1_455  S
C465       O1223   1.277       .  A
C466       O1224   1.277       .  A
C466        C570   1.435       .  S
C467       O1225   1.276       .  A
C467        C573   1.434       .  S
C468       O1226   1.276       .  A
C468        C576   1.434       .  S
O469        C479   1.277       .  A
O469       Cu477   2.011       .  S
O470        C480   1.277       .  A
O470       Cu477   2.010       .  S
O471        C481   1.276       .  A
O471       Cu669   2.009   1_554  S
O472        C482   1.276       .  A
O472       Cu477   2.009       .  S
O473        C482   1.276       .  A
O473       Cu478   2.009       .  S
O474        C481   1.276       .  A
O474       Cu670   2.009   1_554  S
O475        C480   1.276       .  A
O475       Cu478   2.009       .  S
O476        C479   1.276       .  A
O476       Cu478   2.009       .  S
Cu477       O663   2.009       .  S
Cu477      Cu478   2.380       .  S
Cu478       O666   2.009       .  S
C479        C564   1.435       .  S
C481        C568   1.434       .  S
C482        C566   1.434       .  S
O483        C493   1.276       .  A
O483       Cu491   2.009       .  S
O484        C494   1.276       .  A
O484       Cu491   2.009       .  S
O485        C495   1.277       .  A
O485       Cu491   2.011       .  S
O486        C496   1.277       .  A
O486       Cu491   2.010       .  S
O487        C496   1.276       .  A
O487       Cu492   2.009       .  S
O488        C495   1.276       .  A
O488       Cu492   2.009       .  S
O489        C494   1.276       .  A
O489       Cu492   2.009       .  S
O490        C493   1.276       .  A
O490       Cu492   2.009       .  S
Cu491      Cu492   2.380       .  S
C493        C567   1.434       .  S
C494        C565   1.434       .  S
C495        C561   1.435       .  S
O497        C507   1.276   1_455  A
O497       Cu505   2.009       .  S
O498        C508   1.276   1_455  A
O498       Cu505   2.009       .  S
O499        C509   1.276   1_455  A
O499       Cu505   2.009       .  S
O500        C510   1.276   1_455  A
O500       Cu697   2.009   1_554  S
O501       C1278   1.276       .  A
O501       Cu698   2.009   1_554  S
O502       C1277   1.276       .  A
O502       Cu506   2.009       .  S
O503       C1276   1.277       .  A
O503       Cu506   2.010       .  S
O504       C1275   1.277       .  A
O504       Cu506   2.011       .  S
Cu505       O692   2.009       .  S
Cu505     Cu1274   2.380   1_455  S
Cu506       O693   2.009       .  S
Cu506     Cu1273   2.380       .  S
C507       O1272   1.277       .  A
C507        C571   1.435       .  S
C508       O1271   1.277       .  A
C508        C587   1.459       .  S
C509       O1270   1.276       .  A
C509        C557   1.434       .  S
C510       O1269   1.276       .  A
C510        C560   1.434       .  S
O511       C1289   1.277       .  A
O511       Cu519   2.011       .  S
O512       C1290   1.277       .  A
O512       Cu519   2.010       .  S
O513       C1291   1.276       .  A
O513       Cu519   2.009       .  S
O514       C1292   1.276       .  A
O514       Cu519   2.009       .  S
O515        C524   1.276   1_455  A
O515       Cu520   2.009       .  S
O516        C523   1.276   1_455  A
O516       Cu520   2.009       .  S
O517        C522   1.276   1_455  A
O517       Cu520   2.009       .  S
O518        C521   1.276   1_455  A
O518       Cu520   2.009       .  S
Cu519     Cu1288   2.380       .  S
Cu520     Cu1287   2.380   1_455  S
C521       O1279   1.277       .  A
C521        C569   1.435       .  S
C522       O1280   1.277       .  A
C523       O1281   1.276       .  A
C523        C558   1.434       .  S
C524       O1282   1.276       .  A
C524        C559   1.434       .  S
O525        C535   1.276       .  A
O525       Cu533   2.009       .  S
O526        C536   1.276       .  A
O526       Cu533   2.009       .  S
O527        C537   1.276       .  A
O527       Cu725   2.009   1_554  S
O528        C538   1.276       .  A
O528       Cu533   2.009       .  S
O529        C538   1.276       .  A
O529       Cu534   2.009       .  S
O530        C537   1.276       .  A
O530       Cu726   2.009   1_554  S
O531        C536   1.277       .  A
O531       Cu534   2.010       .  S
O532        C535   1.277       .  A
O532       Cu534   2.011       .  S
Cu533       O719   2.009       .  S
Cu533      Cu534   2.380       .  S
Cu534       O722   2.009       .  S
C535        C563   1.435       .  S
C537        C556   1.434       .  S
C538        C553   1.434       .  S
O539        C549   1.276       .  A
O539       Cu547   2.009       .  S
O540        C550   1.276       .  A
O540       Cu547   2.009       .  S
O541        C551   1.276       .  A
O541       Cu547   2.009       .  S
O542        C552   1.276       .  A
O542       Cu547   2.009       .  S
O543        C552   1.277       .  A
O543       Cu548   2.011       .  S
O544        C551   1.277       .  A
O544       Cu548   2.010       .  S
O545        C550   1.276       .  A
O545       Cu548   2.009       .  S
O546        C549   1.276       .  A
O546       Cu548   2.009       .  S
Cu547      Cu548   2.380       .  S
C549        C554   1.434       .  S
C550        C555   1.434       .  S
C552        C562   1.435       .  S
C553        C554   1.205       .  T
C555        C556   1.205       .  T
C557        C558   1.205       .  T
C559        C560   1.205       .  T
C561        C562   1.206       .  T
C563        C564   1.206       .  T
C565        C566   1.205       .  T
C567        C568   1.205       .  T
C569        C570   1.206       .  T
C571        C572   1.206       .  T
C573        C574   1.205       .  T
C575        C576   1.205       .  T
O577        C587   1.277       .  A
O578       C1164   1.277       .  A
O578       Cu585   2.009   1_655  S
O579       Cu585   2.004       .  S
O580       Cu969   2.004       .  S
O581       Cu586   2.004       .  S
O582       Cu970   2.004       .  S
O583        C588   1.277       .  A
O584       C1163   1.277       .  A
O584       Cu586   2.009       .  S
Cu585       O964   2.004   1_465  S
Cu585      Cu778   2.380       .  S
Cu586       O966   2.004       .  S
Cu586      Cu777   2.380   1_556  S
C587       O1160   1.277       .  A
C588       O1154   1.277   1_556  A
C588       C1411   1.459       .  S
O591        C601   1.277       .  A
O591       Cu599   2.009   1_655  S
O592        C602   1.277       .  A
O593        C603   1.277       .  A
O593      Cu1367   2.004   1_545  S
O594        C604   1.277       .  A
O594       Cu599   2.004       .  S
O595        C604   1.277       .  A
O595       Cu600   2.004       .  S
O596        C603   1.277       .  A
O596      Cu1368   2.004   1_545  S
O597        C602   1.277       .  A
O598        C601   1.277       .  A
O598       Cu600   2.009   1_655  S
Cu599      O1361   2.004   1_465  S
Cu599      Cu600   2.380       .  S
Cu600      O1364   2.004   1_465  S
C601        C657   1.459       .  S
C602        C714   1.459       .  S
O605       Cu613   2.004   1_545  S
O606       Cu613   2.004       .  S
O607       Cu613   2.009       .  S
O609        C618   1.277       .  A
O610        C617   1.277       .  A
O610       Cu614   2.009       .  S
O611        C616   1.277       .  A
O611       Cu614   2.004       .  S
O612        C615   1.277       .  A
O612       Cu614   2.004   1_545  S
C617        C672   1.459       .  S
C618        C728   1.459       .  S
O619        C629   1.277       .  A
O620        C630   1.277       .  A
O620       Cu627   2.009       .  S
O621        C631   1.277       .  A
O621       Cu627   2.004       .  S
O622        C632   1.277       .  A
O622       Cu627   2.004       .  S
O623        C632   1.277       .  A
O624        C631   1.277       .  A
O625        C630   1.277       .  A
O626        C629   1.277       .  A
O626       Cu628   2.009       .  S
C629        C688   1.459       .  S
C630        C743   1.459       .  S
O633       C1411   1.277       .  A
O633       Cu641   2.010       .  S
O634       C1412   1.277       .  A
O634       Cu641   2.011       .  S
O635       C1413   1.276       .  A
O636       C1414   1.276       .  A
O636       Cu641   2.009       .  S
O637        C646   1.276   1_455  A
O637       Cu642   2.009       .  S
O638        C645   1.276   1_455  A
O639        C644   1.276   1_455  A
O639       Cu642   2.009       .  S
O640        C643   1.276   1_455  A
O640       Cu642   2.009       .  S
Cu641     Cu1410   2.380       .  S
Cu642     Cu1409   2.380   1_455  S
C643       O1401   1.277       .  A
C643       C1356   1.459       .  S
C644       O1402   1.277       .  A
C644        C764   1.435       .  S
C645       O1403   1.276       .  A
C645        C767   1.434       .  S
C646       O1404   1.276       .  A
C646        C766   1.434       .  S
O647       C1425   1.277       .  A
O647       Cu655   2.010       .  S
O648       C1426   1.277       .  A
O648       Cu655   2.011       .  S
O649       C1427   1.276       .  A
O649       Cu655   2.009       .  S
O650       C1428   1.276       .  A
O650       Cu655   2.009       .  S
O651        C660   1.276   1_455  A
O651       Cu656   2.009       .  S
O652        C659   1.276   1_455  A
O652       Cu656   2.009       .  S
O653        C658   1.276   1_455  A
O653       Cu656   2.009       .  S
O654        C657   1.276   1_455  A
O654       Cu656   2.009       .  S
Cu655     Cu1424   2.380       .  S
Cu656     Cu1423   2.380   1_455  S
C657       O1415   1.277       .  A
C658       O1416   1.277       .  A
C658        C762   1.435       .  S
C659       O1417   1.276       .  A
C659        C765   1.434       .  S
C660       O1418   1.276       .  A
C660        C768   1.434       .  S
O661        C671   1.277       .  A
O661       Cu669   2.011       .  S
O662        C672   1.277       .  A
O662       Cu669   2.010       .  S
O663        C673   1.276       .  A
O664        C674   1.276       .  A
O664       Cu669   2.009       .  S
O665        C674   1.276       .  A
O665       Cu670   2.009       .  S
O666        C673   1.276       .  A
O667        C672   1.276       .  A
O667       Cu670   2.009       .  S
O668        C671   1.276       .  A
O668       Cu670   2.009       .  S
Cu669      Cu670   2.380       .  S
C671        C756   1.435       .  S
C673        C760   1.434       .  S
C674        C758   1.434       .  S
O675        C685   1.276       .  A
O675       Cu683   2.009       .  S
O676        C686   1.276       .  A
O676       Cu683   2.009       .  S
O677        C687   1.277       .  A
O677       Cu683   2.011       .  S
O678        C688   1.277       .  A
O678       Cu683   2.010       .  S
O679        C688   1.276       .  A
O679       Cu684   2.009       .  S
O680        C687   1.276       .  A
O680       Cu684   2.009       .  S
O681        C686   1.276       .  A
O681       Cu684   2.009       .  S
O682        C685   1.276       .  A
O682       Cu684   2.009       .  S
Cu683      Cu684   2.380       .  S
C685        C759   1.434       .  S
C686        C757   1.434       .  S
C687        C753   1.435       .  S
O689        C699   1.276   1_455  A
O689       Cu697   2.009       .  S
O690        C700   1.276   1_455  A
O690       Cu697   2.009       .  S
O691        C701   1.276   1_455  A
O691       Cu697   2.009       .  S
O692        C702   1.276   1_455  A
O693       C1470   1.276       .  A
O694       C1469   1.276       .  A
O694       Cu698   2.009       .  S
O695       C1468   1.277       .  A
O695       Cu698   2.010       .  S
O696       C1467   1.277       .  A
O696       Cu698   2.011       .  S
Cu697     Cu1466   2.380   1_455  S
Cu698     Cu1465   2.380       .  S
C699       O1464   1.277       .  A
C699        C763   1.435       .  S
C700       O1463   1.277       .  A
C701       O1462   1.276       .  A
C701        C749   1.434       .  S
C702       O1461   1.276       .  A
C702        C752   1.434       .  S
O703       C1481   1.277       .  A
O703       Cu711   2.011       .  S
O704       C1482   1.277       .  A
O704       Cu711   2.010       .  S
O705       C1483   1.276       .  A
O705       Cu711   2.009       .  S
O706       C1484   1.276       .  A
O706       Cu711   2.009       .  S
O707        C716   1.276   1_455  A
O707       Cu712   2.009       .  S
O708        C715   1.276   1_455  A
O708       Cu712   2.009       .  S
O709        C714   1.276   1_455  A
O709       Cu712   2.009       .  S
O710        C713   1.276   1_455  A
O710       Cu712   2.009       .  S
Cu711     Cu1480   2.380       .  S
Cu712     Cu1479   2.380   1_455  S
C713       O1471   1.277       .  A
C713        C761   1.435       .  S
C714       O1472   1.277       .  A
C715       O1473   1.276       .  A
C715        C750   1.434       .  S
C716       O1474   1.276       .  A
C716        C751   1.434       .  S
O717        C727   1.276       .  A
O717       Cu725   2.009       .  S
O718        C728   1.276       .  A
O718       Cu725   2.009       .  S
O719        C729   1.276       .  A
O720        C730   1.276       .  A
O720       Cu725   2.009       .  S
O721        C730   1.276       .  A
O721       Cu726   2.009       .  S
O722        C729   1.276       .  A
O723        C728   1.277       .  A
O723       Cu726   2.010       .  S
O724        C727   1.277       .  A
O724       Cu726   2.011       .  S
Cu725      Cu726   2.380       .  S
C727        C755   1.435       .  S
C729        C748   1.434       .  S
C730        C745   1.434       .  S
O731        C741   1.276       .  A
O731       Cu739   2.009       .  S
O732        C742   1.276       .  A
O732       Cu739   2.009       .  S
O733        C743   1.276       .  A
O733       Cu739   2.009       .  S
O734        C744   1.276       .  A
O734       Cu739   2.009       .  S
O735        C744   1.277       .  A
O735       Cu740   2.011       .  S
O736        C743   1.277       .  A
O736       Cu740   2.010       .  S
O737        C742   1.276       .  A
O737       Cu740   2.009       .  S
O738        C741   1.276       .  A
O738       Cu740   2.009       .  S
Cu739      Cu740   2.380       .  S
C741        C746   1.434       .  S
C742        C747   1.434       .  S
C744        C754   1.435       .  S
C745        C746   1.205       .  T
C747        C748   1.205       .  T
C749        C750   1.205       .  T
C751        C752   1.205       .  T
C753        C754   1.206       .  T
C755        C756   1.206       .  T
C757        C758   1.205       .  T
C759        C760   1.205       .  T
C761        C762   1.206       .  T
C763        C764   1.206       .  T
C765        C766   1.205       .  T
C767        C768   1.205       .  T
O769        C779   1.277   1_554  A
O769      Cu1161   2.009   1_545  S
O770       Cu777   2.009       .  S
O771       C1165   1.277   1_554  A
O771       Cu777   2.004       .  S
O772       C1166   1.277   1_554  A
O773       C1358   1.277       .  A
O773       Cu778   2.004   1_645  S
O774       C1357   1.277       .  A
O775        C780   1.277       .  A
O775      Cu1162   2.009   1_455  S
O776       Cu778   2.009   1_545  S
Cu777      O1153   2.009       .  S
Cu778      O1159   2.009   1_455  S
C779       C1084   1.459       .  S
C781       O1155   1.277   1_556  A
C781       O1350   1.277       .  A
C781       C1384   1.463       .  S
C782       O1156   1.277   1_556  A
C782       O1349   1.277       .  A
C782        C999   1.463       .  S
O783        C793   1.277       .  A
O783       Cu791   2.009       .  S
O784        C794   1.277       .  A
O784      Cu1175   2.009   1_545  S
O785        C795   1.277       .  A
O786        C796   1.277       .  A
O786       Cu791   2.004       .  S
O787        C796   1.277       .  A
O787       Cu792   2.004       .  S
O788        C795   1.277       .  A
O789        C794   1.277       .  A
O789      Cu1176   2.009   1_545  S
O790        C793   1.277       .  A
O790       Cu792   2.009       .  S
Cu791      O1168   2.009       .  S
Cu791      Cu792   2.380       .  S
Cu792      O1173   2.009       .  S
C793        C849   1.459       .  S
C794        C906   1.459       .  S
C795       C1208   1.463       .  S
C796       C1207   1.463       .  S
O797        C999   1.277   1_554  A
O797       Cu805   2.004       .  S
O798       C1000   1.277   1_554  A
O798       Cu805   2.004       .  S
O799       C1001   1.277   1_554  A
O799       Cu805   2.009       .  S
O800       C1002   1.277   1_554  A
O800      Cu1189   2.009   1_545  S
O801        C810   1.277       .  A
O801      Cu1190   2.009   1_545  S
O802        C809   1.277       .  A
O802       Cu806   2.009       .  S
O803        C808   1.277       .  A
O803       Cu806   2.004       .  S
O804        C807   1.277       .  A
O804       Cu806   2.004       .  S
Cu805      O1184   2.009       .  S
Cu805      Cu998   2.380   1_554  S
Cu806      O1185   2.009       .  S
Cu806      Cu997   2.380       .  S
C807        O989   1.277       .  A
C807        C974   1.463       .  S
C808        O990   1.277       .  A
C808       C1357   1.463       .  S
C809        O991   1.277       .  A
C809        C864   1.459       .  S
C810        O992   1.277       .  A
C810        C920   1.459       .  S
O811        C821   1.277       .  A
O811      Cu1203   2.009       .  S
O812        C822   1.277       .  A
O812       Cu819   2.009   1_545  S
O813        C823   1.277       .  A
O813       Cu819   2.004       .  S
O814        C824   1.277       .  A
O814       Cu819   2.004   1_545  S
O815        C824   1.277       .  A
O815      Cu1204   2.004   1_545  S
O816        C823   1.277       .  A
O816      Cu1204   2.004       .  S
O817        C822   1.277       .  A
O817      Cu1204   2.009   1_545  S
O818        C821   1.277       .  A
O818       Cu820   2.009       .  S
Cu819      O1195   2.009       .  S
Cu819     Cu1204   2.380       .  S
Cu820      O1199   2.004       .  S
Cu820      O1200   2.004       .  S
Cu820      O1201   2.009       .  S
Cu820     Cu1203   2.380       .  S
C821        C880   1.459       .  S
C822        C935   1.459       .  S
C823       C1180   1.463       .  S
C824       C1179   1.463       .  S
O825       Cu833   2.009       .  S
O826       Cu833   2.009       .  S
O827      Cu1025   2.009   1_554  S
O828       Cu833   2.009       .  S
O829        C838   1.276       .  A
O829       Cu834   2.009       .  S
O830        C837   1.276       .  A
O830      Cu1026   2.009   1_554  S
O831        C836   1.277       .  A
O831       Cu834   2.011       .  S
O832        C835   1.277       .  A
O832       Cu834   2.010       .  S
Cu833      O1019   2.009       .  S
Cu834      O1022   2.009       .  S
C836        C956   1.435       .  S
C837        C959   1.434       .  S
C838        C958   1.434       .  S
O839       Cu847   2.009       .  S
O840       Cu847   2.009       .  S
O841       Cu847   2.009       .  S
O842       Cu847   2.009       .  S
O843        C852   1.276       .  A
O843       Cu848   2.009       .  S
O844        C851   1.276       .  A
O844       Cu848   2.009       .  S
O845        C850   1.277       .  A
O845       Cu848   2.011       .  S
O846        C849   1.277       .  A
O846       Cu848   2.010       .  S
C850        C954   1.435       .  S
C851        C957   1.434       .  S
C852        C960   1.434       .  S
O853        C863   1.276       .  A
O853       Cu861   2.009       .  S
O854        C864   1.276       .  A
O854       Cu861   2.009       .  S
O855        C865   1.276       .  A
O855      Cu1053   2.009   1_554  S
O856        C866   1.276       .  A
O856       Cu861   2.009       .  S
O857        C866   1.276       .  A
O857       Cu862   2.009       .  S
O858        C865   1.276       .  A
O858      Cu1054   2.009   1_554  S
O859        C864   1.277       .  A
O859       Cu862   2.010       .  S
O860        C863   1.277       .  A
O860       Cu862   2.011       .  S
Cu861      O1047   2.009       .  S
Cu861      Cu862   2.380       .  S
Cu862      O1050   2.009       .  S
C863        C948   1.435       .  S
C865        C952   1.434       .  S
C866        C950   1.434       .  S
O867        C877   1.276       .  A
O867       Cu875   2.009       .  S
O868        C878   1.276       .  A
O868       Cu875   2.009       .  S
O869        C879   1.276       .  A
O869       Cu875   2.009       .  S
O870        C880   1.276       .  A
O870       Cu875   2.009       .  S
O871        C880   1.277       .  A
O871       Cu876   2.010       .  S
O872        C879   1.277       .  A
O872       Cu876   2.011       .  S
O873        C878   1.276       .  A
O873       Cu876   2.009       .  S
O874        C877   1.276       .  A
O874       Cu876   2.009       .  S
Cu875      Cu876   2.380       .  S
C877        C951   1.434       .  S
C878        C949   1.434       .  S
C879        C945   1.435       .  S
O881        C891   1.277       .  A
O881       Cu889   2.011       .  S
O882        C892   1.277       .  A
O882       Cu889   2.010       .  S
O883        C893   1.276       .  A
O883       Cu889   2.009       .  S
O884        C894   1.276       .  A
O884      Cu1081   2.009   1_554  S
O885      Cu1082   2.009   1_554  S
O886       Cu890   2.009       .  S
O887       Cu890   2.009       .  S
O888       Cu890   2.009       .  S
Cu889      O1076   2.009       .  S
Cu890      O1077   2.009       .  S
C891        C955   1.435       .  S
C892        C971   1.459       .  S
C893        C941   1.434       .  S
C894        C944   1.434       .  S
O895       Cu903   2.009       .  S
O896       Cu903   2.009       .  S
O897       Cu903   2.009       .  S
O898       Cu903   2.009       .  S
O899        C908   1.276       .  A
O899       Cu904   2.009       .  S
O900        C907   1.276       .  A
O900       Cu904   2.009       .  S
O901        C906   1.277       .  A
O901       Cu904   2.010       .  S
O902        C905   1.277       .  A
O902       Cu904   2.011       .  S
C905        C953   1.435       .  S
C907        C942   1.434       .  S
C908        C943   1.434       .  S
O909        C919   1.277       .  A
O909       Cu917   2.011       .  S
O910        C920   1.277       .  A
O910       Cu917   2.010       .  S
O911        C921   1.276       .  A
O911      Cu1109   2.009   1_554  S
O912        C922   1.276       .  A
O912       Cu917   2.009       .  S
O913        C922   1.276       .  A
O913       Cu918   2.009       .  S
O914        C921   1.276       .  A
O914      Cu1110   2.009   1_554  S
O915        C920   1.276       .  A
O915       Cu918   2.009       .  S
O916        C919   1.276       .  A
O916       Cu918   2.009       .  S
Cu917      O1103   2.009       .  S
Cu917      Cu918   2.380       .  S
Cu918      O1106   2.009       .  S
C919        C947   1.435       .  S
C921        C940   1.434       .  S
C922        C937   1.434       .  S
O923        C933   1.276       .  A
O923       Cu931   2.009       .  S
O924        C934   1.276       .  A
O924       Cu931   2.009       .  S
O925        C935   1.277       .  A
O925       Cu931   2.010       .  S
O926        C936   1.277       .  A
O926       Cu931   2.011       .  S
O927        C936   1.276       .  A
O927       Cu932   2.009       .  S
O928        C935   1.276       .  A
O928       Cu932   2.009       .  S
O929        C934   1.276       .  A
O929       Cu932   2.009       .  S
O930        C933   1.276       .  A
O930       Cu932   2.009       .  S
Cu931      Cu932   2.380       .  S
C933        C938   1.434       .  S
C934        C939   1.434       .  S
C936        C946   1.435       .  S
C937        C938   1.205       .  T
C939        C940   1.205       .  T
C941        C942   1.205       .  T
C943        C944   1.205       .  T
C945        C946   1.206       .  T
C947        C948   1.206       .  T
C949        C950   1.205       .  T
C951        C952   1.205       .  T
C953        C954   1.206       .  T
C955        C956   1.206       .  T
C957        C958   1.205       .  T
C959        C960   1.205       .  T
O961        C971   1.277       .  A
O961      Cu1353   2.009   1_545  S
O962       Cu969   2.009       .  S
O963       C1357   1.277       .  A
O963       Cu969   2.004       .  S
O964       C1358   1.277       .  A
O965       C1166   1.277       .  A
O965       Cu970   2.004   1_645  S
O966       C1165   1.277       .  A
O967        C972   1.277       .  A
O967      Cu1354   2.009       .  S
O968       Cu970   2.009   1_545  S
Cu969      O1345   2.009       .  S
Cu970      O1351   2.009   1_455  S
C973       O1347   1.277       .  A
C973       O1158   1.277       .  A
C973       C1192   1.463       .  S
C974       O1348   1.277       .  A
C974       O1157   1.277       .  A
O975        C985   1.277       .  A
O975       Cu983   2.009       .  S
O976        C986   1.277       .  A
O976      Cu1367   2.009   1_545  S
O977        C987   1.277       .  A
O978        C988   1.277       .  A
O978       Cu983   2.004       .  S
O979        C988   1.277       .  A
O979       Cu984   2.004       .  S
O980        C987   1.277       .  A
O981        C986   1.277       .  A
O981      Cu1368   2.009   1_545  S
O982        C985   1.277       .  A
O982       Cu984   2.009       .  S
Cu983      O1360   2.009       .  S
Cu983      Cu984   2.380       .  S
Cu984      O1365   2.009       .  S
C985       C1041   1.459       .  S
C986       C1098   1.459       .  S
C987       C1400   1.463       .  S
C988       C1399   1.463       .  S
O989       Cu997   2.004       .  S
O990       Cu997   2.004       .  S
O991       Cu997   2.009       .  S
O992      Cu1381   2.009   1_545  S
O993       C1002   1.277       .  A
O993      Cu1382   2.009   1_545  S
O994       C1001   1.277       .  A
O994       Cu998   2.009       .  S
O995       C1000   1.277       .  A
O995       Cu998   2.004       .  S
O996        C999   1.277       .  A
O996       Cu998   2.004       .  S
Cu997      O1376   2.009       .  S
Cu998      O1377   2.009       .  S
C1000      C1165   1.463       .  S
C1001      C1056   1.459       .  S
C1002      C1112   1.459       .  S
O1003      C1013   1.277       .  A
O1003     Cu1395   2.009       .  S
O1004      C1014   1.277       .  A
O1004     Cu1011   2.009   1_545  S
O1005      C1015   1.277       .  A
O1005     Cu1011   2.004       .  S
O1006      C1016   1.277       .  A
O1006     Cu1011   2.004   1_545  S
O1007      C1016   1.277       .  A
O1007     Cu1396   2.004   1_545  S
O1008      C1015   1.277       .  A
O1008     Cu1396   2.004       .  S
O1009      C1014   1.277       .  A
O1009     Cu1396   2.009   1_545  S
O1010      C1013   1.277       .  A
O1010     Cu1012   2.009       .  S
Cu1011     O1387   2.009       .  S
Cu1011    Cu1396   2.380       .  S
Cu1012     O1391   2.004       .  S
Cu1012     O1392   2.004       .  S
Cu1012     O1393   2.009       .  S
Cu1012    Cu1395   2.380       .  S
C1013      C1072   1.459       .  S
C1014      C1127   1.459       .  S
C1015      C1372   1.463       .  S
C1016      C1371   1.463       .  S
O1017     Cu1025   2.009       .  S
O1018     Cu1025   2.009       .  S
O1020     Cu1025   2.009       .  S
O1021      C1030   1.276       .  A
O1021     Cu1026   2.009       .  S
O1022      C1029   1.276       .  A
O1023      C1028   1.277       .  A
O1023     Cu1026   2.011       .  S
O1024      C1027   1.277       .  A
O1024     Cu1026   2.010       .  S
C1028      C1148   1.435       .  S
C1029      C1151   1.434       .  S
C1030      C1150   1.434       .  S
O1031     Cu1039   2.009       .  S
O1032     Cu1039   2.009       .  S
O1033     Cu1039   2.009       .  S
O1034     Cu1039   2.009       .  S
O1035      C1044   1.276       .  A
O1035     Cu1040   2.009       .  S
O1036      C1043   1.276       .  A
O1036     Cu1040   2.009       .  S
O1037      C1042   1.277       .  A
O1037     Cu1040   2.011       .  S
O1038      C1041   1.277       .  A
O1038     Cu1040   2.010       .  S
C1042      C1146   1.435       .  S
C1043      C1149   1.434       .  S
C1044      C1152   1.434       .  S
O1045      C1055   1.276       .  A
O1045     Cu1053   2.009       .  S
O1046      C1056   1.276       .  A
O1046     Cu1053   2.009       .  S
O1047      C1057   1.276       .  A
O1048      C1058   1.276       .  A
O1048     Cu1053   2.009       .  S
O1049      C1058   1.276       .  A
O1049     Cu1054   2.009       .  S
O1050      C1057   1.276       .  A
O1051      C1056   1.277       .  A
O1051     Cu1054   2.010       .  S
O1052      C1055   1.277       .  A
O1052     Cu1054   2.011       .  S
Cu1053    Cu1054   2.380       .  S
C1055      C1140   1.435       .  S
C1057      C1144   1.434       .  S
C1058      C1142   1.434       .  S
O1059      C1069   1.276       .  A
O1059     Cu1067   2.009       .  S
O1060      C1070   1.276       .  A
O1060     Cu1067   2.009       .  S
O1061      C1071   1.276       .  A
O1061     Cu1067   2.009       .  S
O1062      C1072   1.276       .  A
O1062     Cu1067   2.009       .  S
O1063      C1072   1.277       .  A
O1063     Cu1068   2.010       .  S
O1064      C1071   1.277       .  A
O1064     Cu1068   2.011       .  S
O1065      C1070   1.276       .  A
O1065     Cu1068   2.009       .  S
O1066      C1069   1.276       .  A
O1066     Cu1068   2.009       .  S
Cu1067    Cu1068   2.380       .  S
C1069      C1143   1.434       .  S
C1070      C1141   1.434       .  S
C1071      C1137   1.435       .  S
O1073      C1083   1.277       .  A
O1073     Cu1081   2.011       .  S
O1074      C1084   1.277       .  A
O1074     Cu1081   2.010       .  S
O1075      C1085   1.276       .  A
O1075     Cu1081   2.009       .  S
O1076      C1086   1.276       .  A
O1078     Cu1082   2.009       .  S
O1079     Cu1082   2.009       .  S
O1080     Cu1082   2.009       .  S
C1083      C1147   1.435       .  S
C1085      C1133   1.434       .  S
C1086      C1136   1.434       .  S
O1087     Cu1095   2.009       .  S
O1088     Cu1095   2.009       .  S
O1089     Cu1095   2.009       .  S
O1090     Cu1095   2.009       .  S
O1091      C1100   1.276       .  A
O1091     Cu1096   2.009       .  S
O1092      C1099   1.276       .  A
O1092     Cu1096   2.009       .  S
O1093      C1098   1.277       .  A
O1093     Cu1096   2.010       .  S
O1094      C1097   1.277       .  A
O1094     Cu1096   2.011       .  S
C1097      C1145   1.435       .  S
C1099      C1134   1.434       .  S
C1100      C1135   1.434       .  S
O1101      C1111   1.277       .  A
O1101     Cu1109   2.011       .  S
O1102      C1112   1.277       .  A
O1102     Cu1109   2.010       .  S
O1103      C1113   1.276       .  A
O1104      C1114   1.276       .  A
O1104     Cu1109   2.009       .  S
O1105      C1114   1.276       .  A
O1105     Cu1110   2.009       .  S
O1106      C1113   1.276       .  A
O1107      C1112   1.276       .  A
O1107     Cu1110   2.009       .  S
O1108      C1111   1.276       .  A
O1108     Cu1110   2.009       .  S
Cu1109    Cu1110   2.380       .  S
C1111      C1139   1.435       .  S
C1113      C1132   1.434       .  S
C1114      C1129   1.434       .  S
O1115      C1125   1.276       .  A
O1115     Cu1123   2.009       .  S
O1116      C1126   1.276       .  A
O1116     Cu1123   2.009       .  S
O1117      C1127   1.277       .  A
O1117     Cu1123   2.010       .  S
O1118      C1128   1.277       .  A
O1118     Cu1123   2.011       .  S
O1119      C1128   1.276       .  A
O1119     Cu1124   2.009       .  S
O1120      C1127   1.276       .  A
O1120     Cu1124   2.009       .  S
O1121      C1126   1.276       .  A
O1121     Cu1124   2.009       .  S
O1122      C1125   1.276       .  A
O1122     Cu1124   2.009       .  S
Cu1123    Cu1124   2.380       .  S
C1125      C1130   1.434       .  S
C1126      C1131   1.434       .  S
C1128      C1138   1.435       .  S
C1129      C1130   1.205       .  T
C1131      C1132   1.205       .  T
C1133      C1134   1.205       .  T
C1135      C1136   1.205       .  T
C1137      C1138   1.206       .  T
C1139      C1140   1.206       .  T
C1141      C1142   1.205       .  T
C1143      C1144   1.205       .  T
C1145      C1146   1.206       .  T
C1147      C1148   1.206       .  T
C1149      C1150   1.205       .  T
C1151      C1152   1.205       .  T
O1153      C1163   1.277   1_554  A
O1154     Cu1161   2.009       .  S
O1155     Cu1161   2.004       .  S
O1157     Cu1162   2.004       .  S
O1159      C1164   1.277       .  A
O1160     Cu1162   2.009       .  S
C1163      C1468   1.459       .  S
C1166      C1383   1.463       .  S
O1167      C1177   1.277       .  A
O1167     Cu1175   2.009       .  S
O1168      C1178   1.277       .  A
O1169      C1179   1.277       .  A
O1170      C1180   1.277       .  A
O1170     Cu1175   2.004       .  S
O1171      C1180   1.277       .  A
O1171     Cu1176   2.004       .  S
O1172      C1179   1.277       .  A
O1173      C1178   1.277       .  A
O1174      C1177   1.277       .  A
O1174     Cu1176   2.009       .  S
Cu1175    Cu1176   2.380       .  S
C1177      C1233   1.459       .  S
C1178      C1290   1.459       .  S
O1181      C1383   1.277   1_554  A
O1181     Cu1189   2.004   1_545  S
O1182      C1384   1.277   1_554  A
O1182     Cu1189   2.004       .  S
O1183      C1385   1.277   1_554  A
O1183     Cu1189   2.009       .  S
O1184      C1386   1.277   1_554  A
O1185      C1194   1.277       .  A
O1186      C1193   1.277       .  A
O1186     Cu1190   2.009       .  S
O1187      C1192   1.277       .  A
O1187     Cu1190   2.004       .  S
O1188      C1191   1.277       .  A
O1188     Cu1190   2.004   1_545  S
Cu1189    Cu1382   2.380   1_554  S
Cu1190    Cu1381   2.380       .  S
C1191      O1373   1.277       .  A
C1191      C1358   1.463       .  S
C1192      O1374   1.277       .  A
C1193      O1375   1.277       .  A
C1193      C1248   1.459       .  S
C1194      O1376   1.277       .  A
C1194      C1304   1.459       .  S
O1195      C1205   1.277       .  A
O1196      C1206   1.277       .  A
O1196     Cu1203   2.009       .  S
O1197      C1207   1.277       .  A
O1197     Cu1203   2.004       .  S
O1198      C1208   1.277       .  A
O1198     Cu1203   2.004       .  S
O1199      C1208   1.277       .  A
O1200      C1207   1.277       .  A
O1201      C1206   1.277       .  A
O1202      C1205   1.277       .  A
O1202     Cu1204   2.009       .  S
C1205      C1264   1.459       .  S
C1206      C1319   1.459       .  S
O1209     Cu1217   2.010       .  S
O1210     Cu1217   2.011       .  S
O1211     Cu1409   2.009   1_554  S
O1212     Cu1217   2.009       .  S
O1213      C1222   1.276       .  A
O1213     Cu1218   2.009       .  S
O1214      C1221   1.276       .  A
O1214     Cu1410   2.009   1_554  S
O1215      C1220   1.276       .  A
O1215     Cu1218   2.009       .  S
O1216      C1219   1.276       .  A
O1216     Cu1218   2.009       .  S
Cu1217     O1403   2.009       .  S
Cu1218     O1406   2.009       .  S
C1220      C1340   1.435       .  S
C1221      C1343   1.434       .  S
C1222      C1342   1.434       .  S
O1223     Cu1231   2.010       .  S
O1224     Cu1231   2.011       .  S
O1225     Cu1231   2.009       .  S
O1226     Cu1231   2.009       .  S
O1227      C1236   1.276       .  A
O1227     Cu1232   2.009       .  S
O1228      C1235   1.276       .  A
O1228     Cu1232   2.009       .  S
O1229      C1234   1.276       .  A
O1229     Cu1232   2.009       .  S
O1230      C1233   1.276       .  A
O1230     Cu1232   2.009       .  S
C1234      C1338   1.435       .  S
C1235      C1341   1.434       .  S
C1236      C1344   1.434       .  S
O1237      C1247   1.277       .  A
O1237     Cu1245   2.011       .  S
O1238      C1248   1.277       .  A
O1238     Cu1245   2.010       .  S
O1239      C1249   1.276       .  A
O1239     Cu1437   2.009   1_554  S
O1240      C1250   1.276       .  A
O1240     Cu1245   2.009       .  S
O1241      C1250   1.276       .  A
O1241     Cu1246   2.009       .  S
O1242      C1249   1.276       .  A
O1242     Cu1438   2.009   1_554  S
O1243      C1248   1.276       .  A
O1243     Cu1246   2.009       .  S
O1244      C1247   1.276       .  A
O1244     Cu1246   2.009       .  S
Cu1245     O1431   2.009       .  S
Cu1245    Cu1246   2.380       .  S
Cu1246     O1434   2.009       .  S
C1247      C1332   1.435       .  S
C1249      C1336   1.434       .  S
C1250      C1334   1.434       .  S
O1251      C1261   1.276       .  A
O1251     Cu1259   2.009       .  S
O1252      C1262   1.276       .  A
O1252     Cu1259   2.009       .  S
O1253      C1263   1.277       .  A
O1253     Cu1259   2.011       .  S
O1254      C1264   1.277       .  A
O1254     Cu1259   2.010       .  S
O1255      C1264   1.276       .  A
O1255     Cu1260   2.009       .  S
O1256      C1263   1.276       .  A
O1256     Cu1260   2.009       .  S
O1257      C1262   1.276       .  A
O1257     Cu1260   2.009       .  S
O1258      C1261   1.276       .  A
O1258     Cu1260   2.009       .  S
Cu1259    Cu1260   2.380       .  S
C1261      C1335   1.434       .  S
C1262      C1333   1.434       .  S
C1263      C1329   1.435       .  S
O1265      C1275   1.276       .  A
O1265     Cu1273   2.009       .  S
O1266      C1276   1.276       .  A
O1266     Cu1273   2.009       .  S
O1267      C1277   1.276       .  A
O1267     Cu1273   2.009       .  S
O1268      C1278   1.276       .  A
O1268     Cu1465   2.009   1_554  S
O1269     Cu1466   2.009   1_554  S
O1270     Cu1274   2.009       .  S
O1271     Cu1274   2.010       .  S
O1272     Cu1274   2.011       .  S
Cu1273     O1460   2.009       .  S
Cu1274     O1461   2.009       .  S
C1275      C1339   1.435       .  S
C1276      C1355   1.459       .  S
C1277      C1325   1.434       .  S
C1278      C1328   1.434       .  S
O1279     Cu1287   2.011       .  S
O1280     Cu1287   2.010       .  S
O1281     Cu1287   2.009       .  S
O1282     Cu1287   2.009       .  S
O1283      C1292   1.276       .  A
O1283     Cu1288   2.009       .  S
O1284      C1291   1.276       .  A
O1284     Cu1288   2.009       .  S
O1285      C1290   1.276       .  A
O1285     Cu1288   2.009       .  S
O1286      C1289   1.276       .  A
O1286     Cu1288   2.009       .  S
C1289      C1337   1.435       .  S
C1291      C1326   1.434       .  S
C1292      C1327   1.434       .  S
O1293      C1303   1.276       .  A
O1293     Cu1301   2.009       .  S
O1294      C1304   1.276       .  A
O1294     Cu1301   2.009       .  S
O1295      C1305   1.276       .  A
O1295     Cu1493   2.009   1_554  S
O1296      C1306   1.276       .  A
O1296     Cu1301   2.009       .  S
O1297      C1306   1.276       .  A
O1297     Cu1302   2.009       .  S
O1298      C1305   1.276       .  A
O1298     Cu1494   2.009   1_554  S
O1299      C1304   1.277       .  A
O1299     Cu1302   2.010       .  S
O1300      C1303   1.277       .  A
O1300     Cu1302   2.011       .  S
Cu1301     O1487   2.009       .  S
Cu1301    Cu1302   2.380       .  S
Cu1302     O1490   2.009       .  S
C1303      C1331   1.435       .  S
C1305      C1324   1.434       .  S
C1306      C1321   1.434       .  S
O1307      C1317   1.276       .  A
O1307     Cu1315   2.009       .  S
O1308      C1318   1.276       .  A
O1308     Cu1315   2.009       .  S
O1309      C1319   1.276       .  A
O1309     Cu1315   2.009       .  S
O1310      C1320   1.276       .  A
O1310     Cu1315   2.009       .  S
O1311      C1320   1.277       .  A
O1311     Cu1316   2.011       .  S
O1312      C1319   1.277       .  A
O1312     Cu1316   2.010       .  S
O1313      C1318   1.276       .  A
O1313     Cu1316   2.009       .  S
O1314      C1317   1.276       .  A
O1314     Cu1316   2.009       .  S
Cu1315    Cu1316   2.380       .  S
C1317      C1322   1.434       .  S
C1318      C1323   1.434       .  S
C1320      C1330   1.435       .  S
C1321      C1322   1.205       .  T
C1323      C1324   1.205       .  T
C1325      C1326   1.205       .  T
C1327      C1328   1.205       .  T
C1329      C1330   1.206       .  T
C1331      C1332   1.206       .  T
C1333      C1334   1.205       .  T
C1335      C1336   1.205       .  T
C1337      C1338   1.206       .  T
C1339      C1340   1.206       .  T
C1341      C1342   1.205       .  T
C1343      C1344   1.205       .  T
O1345      C1355   1.277       .  A
O1346     Cu1353   2.009       .  S
O1347     Cu1353   2.004       .  S
O1349     Cu1354   2.004   1_655  S
O1351      C1356   1.277       .  A
O1352     Cu1354   2.009   1_655  S
O1359      C1369   1.277       .  A
O1359     Cu1367   2.009       .  S
O1360      C1370   1.277       .  A
O1361      C1371   1.277       .  A
O1362      C1372   1.277       .  A
O1362     Cu1367   2.004       .  S
O1363      C1372   1.277       .  A
O1363     Cu1368   2.004       .  S
O1364      C1371   1.277       .  A
O1365      C1370   1.277       .  A
O1366      C1369   1.277       .  A
O1366     Cu1368   2.009       .  S
Cu1367    Cu1368   2.380       .  S
C1369      C1425   1.459       .  S
C1370      C1482   1.459       .  S
O1373     Cu1381   2.004   1_545  S
O1374     Cu1381   2.004       .  S
O1375     Cu1381   2.009       .  S
O1377      C1386   1.277       .  A
O1378      C1385   1.277       .  A
O1378     Cu1382   2.009       .  S
O1379      C1384   1.277       .  A
O1379     Cu1382   2.004       .  S
O1380      C1383   1.277       .  A
O1380     Cu1382   2.004   1_545  S
C1385      C1440   1.459       .  S
C1386      C1496   1.459       .  S
O1387      C1397   1.277       .  A
O1388      C1398   1.277       .  A
O1388     Cu1395   2.009       .  S
O1389      C1399   1.277       .  A
O1389     Cu1395   2.004       .  S
O1390      C1400   1.277       .  A
O1390     Cu1395   2.004       .  S
O1391      C1400   1.277       .  A
O1392      C1399   1.277       .  A
O1393      C1398   1.277       .  A
O1394      C1397   1.277       .  A
O1394     Cu1396   2.009       .  S
C1397      C1456   1.459       .  S
C1398      C1511   1.459       .  S
O1401     Cu1409   2.010       .  S
O1402     Cu1409   2.011       .  S
O1404     Cu1409   2.009       .  S
O1405      C1414   1.276       .  A
O1405     Cu1410   2.009       .  S
O1406      C1413   1.276       .  A
O1407      C1412   1.276       .  A
O1407     Cu1410   2.009       .  S
O1408      C1411   1.276       .  A
O1408     Cu1410   2.009       .  S
C1412      C1532   1.435       .  S
C1413      C1535   1.434       .  S
C1414      C1534   1.434       .  S
O1415     Cu1423   2.010       .  S
O1416     Cu1423   2.011       .  S
O1417     Cu1423   2.009       .  S
O1418     Cu1423   2.009       .  S
O1419      C1428   1.276       .  A
O1419     Cu1424   2.009       .  S
O1420      C1427   1.276       .  A
O1420     Cu1424   2.009       .  S
O1421      C1426   1.276       .  A
O1421     Cu1424   2.009       .  S
O1422      C1425   1.276       .  A
O1422     Cu1424   2.009       .  S
C1426      C1530   1.435       .  S
C1427      C1533   1.434       .  S
C1428      C1536   1.434       .  S
O1429      C1439   1.277       .  A
O1429     Cu1437   2.011       .  S
O1430      C1440   1.277       .  A
O1430     Cu1437   2.010       .  S
O1431      C1441   1.276       .  A
O1432      C1442   1.276       .  A
O1432     Cu1437   2.009       .  S
O1433      C1442   1.276       .  A
O1433     Cu1438   2.009       .  S
O1434      C1441   1.276       .  A
O1435      C1440   1.276       .  A
O1435     Cu1438   2.009       .  S
O1436      C1439   1.276       .  A
O1436     Cu1438   2.009       .  S
Cu1437    Cu1438   2.380       .  S
C1439      C1524   1.435       .  S
C1441      C1528   1.434       .  S
C1442      C1526   1.434       .  S
O1443      C1453   1.276       .  A
O1443     Cu1451   2.009       .  S
O1444      C1454   1.276       .  A
O1444     Cu1451   2.009       .  S
O1445      C1455   1.277       .  A
O1445     Cu1451   2.011       .  S
O1446      C1456   1.277       .  A
O1446     Cu1451   2.010       .  S
O1447      C1456   1.276       .  A
O1447     Cu1452   2.009       .  S
O1448      C1455   1.276       .  A
O1448     Cu1452   2.009       .  S
O1449      C1454   1.276       .  A
O1449     Cu1452   2.009       .  S
O1450      C1453   1.276       .  A
O1450     Cu1452   2.009       .  S
Cu1451    Cu1452   2.380       .  S
C1453      C1527   1.434       .  S
C1454      C1525   1.434       .  S
C1455      C1521   1.435       .  S
O1457      C1467   1.276       .  A
O1457     Cu1465   2.009       .  S
O1458      C1468   1.276       .  A
O1458     Cu1465   2.009       .  S
O1459      C1469   1.276       .  A
O1459     Cu1465   2.009       .  S
O1460      C1470   1.276       .  A
O1462     Cu1466   2.009       .  S
O1463     Cu1466   2.010       .  S
O1464     Cu1466   2.011       .  S
C1467      C1531   1.435       .  S
C1469      C1517   1.434       .  S
C1470      C1520   1.434       .  S
O1471     Cu1479   2.011       .  S
O1472     Cu1479   2.010       .  S
O1473     Cu1479   2.009       .  S
O1474     Cu1479   2.009       .  S
O1475      C1484   1.276       .  A
O1475     Cu1480   2.009       .  S
O1476      C1483   1.276       .  A
O1476     Cu1480   2.009       .  S
O1477      C1482   1.276       .  A
O1477     Cu1480   2.009       .  S
O1478      C1481   1.276       .  A
O1478     Cu1480   2.009       .  S
C1481      C1529   1.435       .  S
C1483      C1518   1.434       .  S
C1484      C1519   1.434       .  S
O1485      C1495   1.276       .  A
O1485     Cu1493   2.009       .  S
O1486      C1496   1.276       .  A
O1486     Cu1493   2.009       .  S
O1487      C1497   1.276       .  A
O1488      C1498   1.276       .  A
O1488     Cu1493   2.009       .  S
O1489      C1498   1.276       .  A
O1489     Cu1494   2.009       .  S
O1490      C1497   1.276       .  A
O1491      C1496   1.277       .  A
O1491     Cu1494   2.010       .  S
O1492      C1495   1.277       .  A
O1492     Cu1494   2.011       .  S
Cu1493    Cu1494   2.380       .  S
C1495      C1523   1.435       .  S
C1497      C1516   1.434       .  S
C1498      C1513   1.434       .  S
O1499      C1509   1.276       .  A
O1499     Cu1507   2.009       .  S
O1500      C1510   1.276       .  A
O1500     Cu1507   2.009       .  S
O1501      C1511   1.276       .  A
O1501     Cu1507   2.009       .  S
O1502      C1512   1.276       .  A
O1502     Cu1507   2.009       .  S
O1503      C1512   1.277       .  A
O1503     Cu1508   2.011       .  S
O1504      C1511   1.277       .  A
O1504     Cu1508   2.010       .  S
O1505      C1510   1.276       .  A
O1505     Cu1508   2.009       .  S
O1506      C1509   1.276       .  A
O1506     Cu1508   2.009       .  S
Cu1507    Cu1508   2.380       .  S
C1509      C1514   1.434       .  S
C1510      C1515   1.434       .  S
C1512      C1522   1.435       .  S
C1513      C1514   1.205       .  T
C1515      C1516   1.205       .  T
C1517      C1518   1.205       .  T
C1519      C1520   1.205       .  T
C1521      C1522   1.206       .  T
C1523      C1524   1.206       .  T
C1525      C1526   1.205       .  T
C1527      C1528   1.205       .  T
C1529      C1530   1.206       .  T
C1531      C1532   1.206       .  T
C1533      C1534   1.205       .  T
C1535      C1536   1.205       .  T
