geometry optimzed in LAMMPS
_audit_creation_date              2020-11-30 
_audit_creation_method            'lammps2cif' 
_symmetry_space_group_name_H-M    'P1' 
_symmetry_Int_Tables_number       1 
_symmetry_cell_setting            triclinic 
loop_ 
_symmetry_equiv_pos_as_xyz 
  x,y,z 
_cell_length_a                    37.40406059853513 
_cell_length_b                    37.40178141120891 
_cell_length_c                    33.37475812247474 
_cell_angle_alpha                 90.16045057371832 
_cell_angle_beta                  89.84932916709117 
_cell_angle_gamma                 121.50811945189888 
loop_ 
_atom_site_label 
_atom_site_type_symbol 
_atom_site_fract_x 
_atom_site_fract_y 
_atom_site_fract_z 
_atom_site_charge 
O1          O  0.05843751  0.53648433  0.54170825    -0.72800
O2          O  0.99232064  0.44673561  0.46074000    -0.73780
O3          O  0.05759117  0.53278135  0.45712123    -0.62400
O4          O  0.99329349  0.45088527  0.54504671    -0.70810
O5          O  0.94433009  0.46730762  0.54278159    -0.70360
O6          O  0.00937163  0.55041249  0.45682898    -0.61610
O7          O  0.94421756  0.46436924  0.45821614    -0.74120
O8          O  0.00953508  0.55308871  0.54049970    -0.72900
Cu9        Cu  0.02702382  0.49098491  0.50114321     1.04560
Cu10       Cu  0.97518793  0.50938982  0.49947481     1.04330
C11         C  0.04450229  0.55942600  0.55354937     0.93400
C12         C  0.95766370  0.44073570  0.44723298     0.92540
C13         C  0.04401412  0.55560127  0.44412339     0.84690
C14         C  0.95853629  0.44572522  0.55751695     0.90960
O15         O  0.47446467  0.52850863  0.95554975    -0.72800
O16         O  0.45483076  0.44495104  0.04103724    -0.73780
O17         O  0.46870665  0.52754379  0.04062582    -0.62400
O18         O  0.46093336  0.44564726  0.95685069    -0.70810
O19         O  0.52957242  0.47207489  0.96061396    -0.70360
O20         O  0.53706263  0.55269914  0.04466509    -0.61610
O21         O  0.52269972  0.46923781  0.04564500    -0.74120
O22         O  0.54270539  0.55431671  0.96039288    -0.72900
Cu23       Cu  0.46236821  0.48572182  0.99835807     1.04560
Cu24       Cu  0.53539057  0.51301837  0.00305214     1.04330
C25         C  0.51197281  0.55524973  0.94474719     0.93400
C26         C  0.48492122  0.44279284  0.05628212     0.92540
C27         C  0.50475260  0.55379347  0.05512316     0.84690
C28         C  0.49375154  0.44561301  0.94601425     0.90960
O29         O  0.94699272  0.47730361  0.95892576    -0.72800
O30         O  0.01247903  0.45909908  0.04375285    -0.73780
O31         O  0.94490317  0.47381717  0.04383494    -0.62400
O32         O  0.01489055  0.46214215  0.95892611    -0.70810
O33         O  0.06090314  0.53077216  0.96066815    -0.70360
O34         O  0.99256111  0.54176032  0.04722575    -0.61610
O35         O  0.05976184  0.52717226  0.04535764    -0.74120
O36         O  0.99352970  0.54543565  0.96284690    -0.72900
Cu37       Cu  0.97823405  0.46563404  0.00115552     1.04560
Cu38       Cu  0.02822093  0.53860737  0.00401387     1.04330
C39         C  0.95936162  0.51496476  0.94871688     0.93400
C40         C  0.04659202  0.49002922  0.05768234     0.92540
C41         C  0.95802777  0.50996272  0.05912513     0.84690
C42         C  0.04901999  0.49435248  0.94692644     0.90960
N43         N  0.73995012  0.17083896  0.21091186    -0.27140
N44         N  0.74126541  0.13663673  0.20415606    -0.35000
C45         C  0.70877193  0.11023843  0.18107254     0.01200
C46         C  0.68578727  0.12841896  0.17257405     0.07220
C47         C  0.70653534  0.16709455  0.19151118    -0.05880
H48         H  0.70285536  0.08025063  0.17044551     0.07890
H49         H  0.69783452  0.19050943  0.19149553     0.09090
Cu50       Cu  0.78717125  0.12568581  0.22296981     0.44170
Cu51       Cu  0.78323324  0.22026311  0.24695160     0.41990
Cu52       Cu  0.87121701  0.20802466  0.27295407     0.43880
N53         N  0.83828549  0.12250705  0.24031373    -0.34530
N54         N  0.87013262  0.15388747  0.25935889    -0.28780
C55         C  0.89942729  0.14422599  0.26643825    -0.04880
C56         C  0.88514019  0.10481794  0.25087846     0.07330
C57         C  0.84647252  0.09193780  0.23421227     0.01130
H58         H  0.92929802  0.16478431  0.28076948     0.08780
H59         H  0.82627463  0.06301982  0.21820211     0.07860
N60         N  0.86433468  0.25626491  0.29228442    -0.35980
N61         N  0.83229634  0.26087137  0.28473035    -0.28160
C62         C  0.83663508  0.29315084  0.30691597    -0.03400
C63         C  0.87323517  0.30936590  0.32928582     0.05210
C64         C  0.88978931  0.28519172  0.31884511     0.03300
H65         H  0.81376493  0.30252449  0.30815180     0.08410
H66         H  0.91769823  0.28733370  0.33083041     0.07240
N67         N  0.25572652  0.82580653  0.20716132    -0.27140
N68         N  0.25180226  0.85806972  0.19835389    -0.35000
C69         C  0.28312672  0.88433120  0.17412316     0.01200
C70         C  0.30814019  0.86810315  0.16675750     0.07220
C71         C  0.28993838  0.83081093  0.18811165    -0.05880
H72         H  0.28712673  0.91313385  0.16233220     0.07890
H73         H  0.30107840  0.80938546  0.19026842     0.09090
Cu74       Cu  0.20496909  0.86748682  0.21715928     0.44170
Cu75       Cu  0.21460404  0.77754606  0.24552373     0.41990
Cu76       Cu  0.12579967  0.78915930  0.27376600     0.43880
N77         N  0.15506690  0.87160963  0.23654792    -0.34530
N78         N  0.12505237  0.84192669  0.25869459    -0.28780
C79         C  0.09636401  0.85217549  0.26708463    -0.04880
C80         C  0.10905653  0.89004806  0.24881337     0.07330
C81         C  0.14624851  0.90151119  0.22953734     0.01130
H82         H  0.06784763  0.83290309  0.28398497     0.08780
H83         H  0.16506129  0.92907009  0.21131126     0.07860
N84         N  0.13445474  0.74213374  0.29299753    -0.35980
N85         N  0.16661202  0.73778844  0.28482723    -0.28160
C86         C  0.16307027  0.70610288  0.30729437    -0.03400
C87         C  0.12731918  0.69057387  0.33083895     0.05210
C88         C  0.10975482  0.71364678  0.32017624     0.03300
H89         H  0.18564645  0.69630869  0.30768864     0.08410
H90         H  0.08150097  0.71089718  0.33209776     0.07240
C91         C  0.97860238  0.02213506  0.23834209     0.02430
C92         C  0.95576874  0.97771979  0.23815057     0.02430
C93         C  0.97738003  0.95612573  0.23870506     0.02430
C94         C  0.02163547  0.97872525  0.24000739     0.02430
C95         C  0.04478536  0.02316030  0.23968902     0.02430
C96         C  0.02312454  0.04494658  0.23902207     0.02430
N97         N  0.55639868  0.73170460  0.21709203    -0.27140
N98         N  0.59350401  0.74063104  0.20370593    -0.35000
C99         C  0.58847246  0.71248384  0.17602813     0.01200
C100        C  0.54622842  0.68401445  0.17108025     0.07220
C101        C  0.52650268  0.69695420  0.19776787    -0.05880
H102        H  0.61402369  0.71324545  0.15994552     0.07890
H103        H  0.49309175  0.68324125  0.20164200     0.09090
Cu104      Cu  0.65117444  0.79074876  0.22003436     0.44170
Cu105      Cu  0.55042690  0.77020834  0.25918663     0.41990
Cu106      Cu  0.65542222  0.85919152  0.29139420     0.43880
N107        N  0.70782099  0.83955136  0.24029774    -0.34530
N108        N  0.70971827  0.86485387  0.26889720    -0.28780
C109        C  0.75020929  0.89285783  0.27731441    -0.04880
C110        C  0.77477170  0.88471401  0.25233746     0.07330
C111        C  0.74688980  0.85090662  0.22907418     0.01130
H112        H  0.76094186  0.91784431  0.29912745     0.08780
H113        H  0.75442725  0.83558767  0.20592738     0.07860
N114        N  0.59813001  0.85099642  0.30747039    -0.35980
N115        N  0.56039212  0.81924136  0.29766754    -0.28160
C116        C  0.53138100  0.82550455  0.31501007    -0.03400
C117        C  0.55214467  0.86324693  0.33574347     0.05210
C118        C  0.59415861  0.87823283  0.33034209     0.03300
H119        H  0.49780332  0.80462444  0.31213420     0.08410
H120        H  0.62019196  0.90687446  0.34257252     0.07240
N121        N  0.25725832  0.43997899  0.29618616    -0.27140
N122        N  0.23983454  0.40420737  0.31612451    -0.35000
C123        C  0.26647609  0.40644306  0.34404493     0.01200
C124        C  0.30337730  0.44507207  0.34170482     0.07220
C125        C  0.29624852  0.46580564  0.31096488    -0.05880
H126        H  0.25991728  0.38052112  0.36334198     0.07890
H127        H  0.31838537  0.49626934  0.29860351     0.09090
Cu128      Cu  0.18621674  0.34846344  0.30058717     0.44170
Cu129      Cu  0.22684768  0.44914669  0.24812284     0.41990
Cu130      Cu  0.15259028  0.34670312  0.20406299     0.43880
N131        N  0.14712449  0.29246013  0.27137921    -0.34530
N132        N  0.13623783  0.29210882  0.23380123    -0.28780
C133        C  0.11343017  0.25230693  0.22084347    -0.04880
C134        C  0.10965806  0.22612767  0.25195715     0.07330
C135        C  0.13167422  0.25274494  0.28357867     0.01130
H136        H  0.10045147  0.24311405  0.19104533     0.08780
H137        H  0.13734744  0.24409311  0.31268805     0.07860
N138        N  0.15763643  0.40214675  0.18770950    -0.35980
N139        N  0.18311593  0.43952246  0.20362815    -0.28160
C140        C  0.17281996  0.46659177  0.18883084    -0.03400
C141        C  0.13884148  0.44465906  0.16316264     0.05210
C142        C  0.13078099  0.40424864  0.16286383     0.03300
H143        H  0.18760269  0.49921105  0.19747891     0.08410
H144        H  0.10619786  0.37767316  0.14664808     0.07240
N145        N  0.44062681  0.26438312  0.21730178    -0.27140
N146        N  0.40507776  0.26396756  0.21898213    -0.35000
C147        C  0.40777115  0.29401831  0.19524589     0.01200
C148        C  0.44654521  0.31457234  0.17662980     0.07220
C149        C  0.46683475  0.29498163  0.19160547    -0.05880
H150        H  0.38213488  0.29905555  0.19048404     0.07890
H151        H  0.49728438  0.30079087  0.18285997     0.09090
Cu152      Cu  0.34939510  0.21835366  0.24475495     0.44170
Cu153      Cu  0.44872540  0.22036091  0.24853091     0.41990
Cu154      Cu  0.34472747  0.12650437  0.26892178     0.43880
N155        N  0.29252138  0.16350892  0.25440605    -0.34530
N156        N  0.29068128  0.12790179  0.26143659    -0.28780
C157        C  0.25026736  0.09654244  0.26295596    -0.04880
C158        C  0.22559960  0.11353848  0.25683118     0.07330
C159        C  0.25332108  0.15602769  0.25133813     0.01130
H160        H  0.23966323  0.06386387  0.26777718     0.08780
H161        H  0.24560833  0.17941494  0.24419053     0.07860
N162        N  0.40110767  0.13549524  0.28879870    -0.35980
N163        N  0.43882172  0.16917275  0.28336105    -0.28160
C164        C  0.46650039  0.16514871  0.30597663    -0.03400
C165        C  0.44485435  0.12720438  0.32650871     0.05210
C166        C  0.40370641  0.10954719  0.31448319     0.03300
H167        H  0.49933661  0.18908855  0.30898927     0.08410
H168        H  0.37691055  0.08049850  0.32505755     0.07240
N169        N  0.73967188  0.55899394  0.29173745    -0.27140
N170        N  0.75132893  0.59631956  0.30679826    -0.35000
C171        C  0.72224879  0.59268164  0.33272179     0.01200
C172        C  0.69019033  0.55125661  0.33421727     0.07220
C173        C  0.70243324  0.53042523  0.30829378    -0.05880
H174        H  0.72390943  0.61875638  0.34862765     0.07890
H175        H  0.68482435  0.49738626  0.30083262     0.09090
Cu176      Cu  0.80267421  0.65307349  0.28987688     0.44170
Cu177      Cu  0.77436168  0.55067890  0.24705797     0.41990
Cu178      Cu  0.85449060  0.65322217  0.20419727     0.43880
N179        N  0.84728686  0.70845650  0.26329730    -0.34530
N180        N  0.86589305  0.70858470  0.22967593    -0.28780
C181        C  0.89184675  0.74845284  0.21787838    -0.04880
C182        C  0.88966788  0.77472998  0.24583775     0.07330
C183        C  0.86083878  0.74818626  0.27411905     0.01130
H184        H  0.91114935  0.75763213  0.19122653     0.08780
H185        H  0.84972258  0.75697175  0.30004711     0.07860
N186        N  0.84641577  0.59601759  0.18843246    -0.35980
N187        N  0.81825453  0.55878617  0.20305302    -0.28160
C188        C  0.82546701  0.52984619  0.18707540    -0.03400
C189        C  0.85997112  0.55025277  0.16174563     0.05210
C190        C  0.87216900  0.59192354  0.16351421     0.03300
H191        H  0.80824751  0.49689137  0.19477742     0.08410
H192        H  0.89884414  0.61782586  0.14859773     0.07240
N193        N  0.82487045  0.25374754  0.70382841    -0.27140
N194        N  0.85324920  0.24574343  0.69024150    -0.35000
C195        C  0.88077324  0.27736333  0.66704470     0.01200
C196        C  0.86991601  0.30729345  0.66599863     0.07220
C197        C  0.83382160  0.29113461  0.68909260    -0.05880
H198        H  0.90708521  0.27846381  0.65221056     0.07890
H199        H  0.81615033  0.30592736  0.69557765     0.09090
Cu200      Cu  0.85877874  0.19560693  0.70484627     0.44170
Cu201      Cu  0.77757193  0.21436663  0.74391658     0.41990
Cu202      Cu  0.79673566  0.13344684  0.78212086     0.43880
N203        N  0.86748875  0.15053377  0.72941947    -0.34530
N204        N  0.84446640  0.12749636  0.75974917    -0.28780
C205        C  0.85714122  0.10138486  0.77078186    -0.04880
C206        C  0.89002639  0.10865932  0.74605176     0.07330
C207        C  0.89559313  0.13985983  0.71997725     0.01130
H208        H  0.84276998  0.07821439  0.79427911     0.08780
H209        H  0.91844850  0.15388859  0.69611680     0.07860
N210        N  0.74822883  0.14067527  0.79947180    -0.35980
N211        N  0.74000641  0.16893766  0.78623175    -0.28160
C212        C  0.70584411  0.16354916  0.80572433    -0.03400
C213        C  0.69251338  0.13046930  0.83236465     0.05210
C214        C  0.72012263  0.11694110  0.82737450     0.03300
H215        H  0.69269268  0.18309401  0.80178827     0.08410
H216        H  0.72012963  0.09175924  0.84325482     0.07240
N217        N  0.16932621  0.74201768  0.71290812    -0.27140
N218        N  0.13599479  0.74513154  0.70804046    -0.35000
C219        C  0.11040922  0.71704536  0.68098777     0.01200
C220        C  0.12857661  0.69554984  0.66679990     0.07220
C221        C  0.16571022  0.71159531  0.68826063    -0.05880
H222        H  0.08081361  0.71318008  0.67207244     0.07890
H223        H  0.18885749  0.70268973  0.68533891     0.09090
Cu224      Cu  0.12649801  0.78990105  0.73219672     0.44170
Cu225      Cu  0.21790052  0.78106934  0.75205749     0.41990
Cu226      Cu  0.20093144  0.86276330  0.79577702     0.43880
N227        N  0.12424385  0.84088856  0.75088975    -0.34530
N228        N  0.15207796  0.86843737  0.77616271    -0.28780
C229        C  0.14404493  0.89907737  0.78252780    -0.04880
C230        C  0.10976132  0.89028071  0.75945899     0.07330
C231        C  0.09794030  0.85325459  0.73974068     0.01130
H232        H  0.16252492  0.92627053  0.80134580     0.08780
H233        H  0.07246814  0.83679259  0.71864392     0.07860
N234        N  0.25099193  0.85591673  0.80759640    -0.35980
N235        N  0.25800227  0.82721494  0.79284198    -0.28160
C236        C  0.29482631  0.83443375  0.80753852    -0.03400
C237        C  0.31166651  0.86972928  0.83180331     0.05210
C238        C  0.28283323  0.88202674  0.83137752     0.03300
H239        H  0.30870515  0.81605460  0.80037571     0.08410
H240        H  0.28481376  0.90828472  0.84722523     0.07240
C241        C  0.97836759  0.02049562  0.74098816     0.02430
C242        C  0.95647153  0.97625581  0.73892642     0.02430
C243        C  0.97904193  0.95553347  0.74009947     0.02430
C244        C  0.02326598  0.97924322  0.74358569     0.02430
C245        C  0.04500880  0.02346451  0.74440802     0.02430
C246        C  0.02254077  0.04409644  0.74324810     0.02430
N247        N  0.44341650  0.26833065  0.78498363    -0.27140
N248        N  0.40665252  0.25996247  0.79900305    -0.35000
C249        C  0.41247139  0.28885938  0.82615877     0.01200
C250        C  0.45474841  0.31731872  0.82977549     0.07220
C251        C  0.47380607  0.30361944  0.80319531    -0.05880
H252        H  0.38751418  0.28851770  0.84297133     0.07890
H253        H  0.50712470  0.31713138  0.79879993     0.09090
Cu254      Cu  0.34823785  0.20965445  0.78508471     0.44170
Cu255      Cu  0.44930141  0.22837932  0.74446996     0.41990
Cu256      Cu  0.34593139  0.13083113  0.73166697     0.43880
N257        N  0.29191889  0.15786754  0.76854925    -0.34530
N258        N  0.29109394  0.12772983  0.74730086    -0.28780
C259        C  0.25120646  0.09914166  0.73769170    -0.04880
C260        C  0.22571020  0.11201278  0.75410326     0.07330
C261        C  0.25252568  0.14921281  0.77380820     0.01130
H262        H  0.24155424  0.07130170  0.71993415     0.08780
H263        H  0.24416416  0.16911294  0.78961642     0.07860
N264        N  0.40155967  0.14147510  0.70806766    -0.35980
N265        N  0.43862449  0.17670447  0.70951172    -0.28160
C266        C  0.46505542  0.17248590  0.68492011    -0.03400
C267        C  0.44309105  0.13295083  0.66711485     0.05210
C268        C  0.40345106  0.11420233  0.68356185     0.03300
H269        H  0.49730332  0.19683878  0.67926451     0.08410
H270        H  0.37703117  0.08309871  0.67745991     0.07240
N271        N  0.25925568  0.44175061  0.70715855    -0.27140
N272        N  0.24894410  0.40403660  0.69441611    -0.35000
C273        C  0.27871455  0.40710806  0.66991924     0.01200
C274        C  0.31001704  0.44869120  0.66663548     0.07220
C275        C  0.29663212  0.47011739  0.69058297    -0.05880
H276        H  0.27792958  0.38050556  0.65608288     0.07890
H277        H  0.31344296  0.50343346  0.69674013     0.09090
Cu278      Cu  0.19823210  0.34774170  0.71214711     0.44170
Cu279      Cu  0.22146870  0.44990837  0.74845582     0.41990
Cu280      Cu  0.13446060  0.34627355  0.78691198     0.43880
N281        N  0.15147738  0.29210268  0.73579482    -0.34530
N282        N  0.12687514  0.29109613  0.76460742    -0.28780
C283        C  0.09953842  0.25090587  0.77461554    -0.04880
C284        C  0.10785083  0.22540238  0.75099006     0.07330
C285        C  0.14092869  0.25283328  0.72659817     0.01130
H286        H  0.07506046  0.24116871  0.79679443     0.08780
H287        H  0.15651050  0.24491973  0.70406251     0.07860
N288        N  0.14615769  0.40456812  0.80433326    -0.35980
N289        N  0.17589912  0.44172078  0.79074171    -0.28160
C290        C  0.17202755  0.47161402  0.80955804    -0.03400
C291        C  0.13875266  0.45202780  0.83626419     0.05210
C292        C  0.12330023  0.40981787  0.83203815     0.03300
H293        H  0.19244398  0.50501070  0.80486606     0.08410
H294        H  0.09718712  0.38452665  0.84812617     0.07240
N295        N  0.56090124  0.73290479  0.78248060    -0.27140
N296        N  0.59662361  0.73351381  0.78167752    -0.35000
C297        C  0.59419239  0.70447304  0.80669628     0.01200
C298        C  0.55573963  0.68493492  0.82560434     0.07220
C299        C  0.53486754  0.70311347  0.80892596    -0.05880
H300        H  0.61969483  0.69933418  0.81190170     0.07890
H301        H  0.50394127  0.69658444  0.81685170     0.09090
Cu302      Cu  0.65252378  0.77777128  0.75551283     0.44170
Cu303      Cu  0.55164742  0.77528768  0.74917255     0.41990
Cu304      Cu  0.65478192  0.86239524  0.71584898     0.43880
N305        N  0.70900000  0.83146958  0.74217552    -0.34530
N306        N  0.70969302  0.86446321  0.72744487    -0.28780
C307        C  0.74965362  0.89604551  0.72303571    -0.04880
C308        C  0.77525397  0.88204187  0.73597458     0.07330
C309        C  0.74861528  0.84099942  0.74799306     0.01130
H310        H  0.75928182  0.92690074  0.71174866     0.08780
H311        H  0.75732482  0.81994581  0.76047088     0.07860
N312        N  0.59816724  0.85518367  0.70091833    -0.35980
N313        N  0.56035180  0.82473289  0.71194984    -0.28160
C314        C  0.53185073  0.83180217  0.69470772    -0.03400
C315        C  0.55320694  0.86840944  0.67189459     0.05210
C316        C  0.59497705  0.88178923  0.67679511     0.03300
H317        H  0.49831820  0.81206749  0.69891141     0.08410
H318        H  0.62163408  0.90883646  0.66314162     0.07240
N319        N  0.74173401  0.55856570  0.70802879    -0.27140
N320        N  0.75591276  0.59487086  0.68957188    -0.35000
C321        C  0.72686979  0.59179038  0.66415251     0.01200
C322        C  0.69210860  0.55194813  0.66649666     0.07220
C323        C  0.70270204  0.53120161  0.69412605    -0.05880
H324        H  0.73057058  0.61738794  0.64592090     0.07890
H325        H  0.68296740  0.49922217  0.70439645     0.09090
Cu326      Cu  0.81005085  0.65113747  0.70125613     0.44170
Cu327      Cu  0.77594974  0.55016840  0.75321788     0.41990
Cu328      Cu  0.86112973  0.65496520  0.78600369     0.43880
N329        N  0.85312790  0.70796654  0.72620927    -0.34530
N330        N  0.87122314  0.70939992  0.76044192    -0.28780
C331        C  0.89518539  0.74951799  0.77238109    -0.04880
C332        C  0.89186318  0.77446559  0.74391164     0.07330
C333        C  0.86516178  0.74712948  0.71487779     0.01130
H334        H  0.91401452  0.75973931  0.79930136     0.08780
H335        H  0.85459667  0.75503662  0.68807770     0.07860
N336        N  0.85276705  0.59887024  0.80506782    -0.35980
N337        N  0.82230151  0.56058809  0.79536831    -0.28160
C338        C  0.82818449  0.53291703  0.81599439    -0.03400
C339        C  0.86433568  0.55523664  0.83936725     0.05210
C340        C  0.87874510  0.59677959  0.83091801     0.03300
H341        H  0.80718829  0.49929703  0.81454598     0.08410
H342        H  0.90654768  0.62420920  0.84256417     0.07240
O343        O  0.47527039  0.94429206  0.54525697    -0.72800
O344        O  0.45619617  0.00664640  0.45834745    -0.73780
O345        O  0.47341717  0.94056516  0.46055476    -0.62400
O346        O  0.45796008  0.00982096  0.54238235    -0.70810
O347        O  0.52580267  0.05802868  0.54140846    -0.70360
O348        O  0.54112586  0.98940900  0.45717141    -0.61610
O349        O  0.52392707  0.05533505  0.45651723    -0.74120
O350        O  0.54310596  0.99211526  0.54254999    -0.72900
Cu351      Cu  0.46341441  0.97367406  0.50163871     1.04560
Cu352      Cu  0.53594893  0.02526323  0.49933486     1.04330
C353        C  0.51258236  0.95869046  0.55788317     0.93400
C354        C  0.48641480  0.04138565  0.44476424     0.92540
C355        C  0.50987582  0.95407421  0.44599034     0.84690
C356        C  0.48879269  0.04499154  0.55438797     0.90960
O357        O  0.53403087  0.05615167  0.95694389    -0.72800
O358        O  0.44850044  0.99033219  0.04143008    -0.73780
O359        O  0.53307467  0.05774596  0.04131815    -0.62400
O360        O  0.44982817  0.98902733  0.95641638    -0.70810
O361        O  0.47041443  0.94311291  0.95710393    -0.70360
O362        O  0.55064615  0.00955627  0.04540118    -0.61610
O363        O  0.46634415  0.94228619  0.04182688    -0.74120
O364        O  0.55541217  0.01090914  0.96102452    -0.72900
Cu365      Cu  0.49046279  0.02478186  0.99893580     1.04560
Cu366      Cu  0.51142786  0.97482651  0.00130616     1.04330
C367        C  0.55917822  0.04437964  0.94669879     0.93400
C368        C  0.44396811  0.95630293  0.05512979     0.92540
C369        C  0.55497636  0.04425605  0.05678501     0.84690
C370        C  0.44709215  0.95563097  0.94304545     0.90960
O371        O  0.44615939  0.45198883  0.46047233    -0.72800
O372        O  0.53030663  0.47042925  0.54435065    -0.73780
O373        O  0.44745947  0.45447552  0.54524784    -0.62400
O374        O  0.52954992  0.46857899  0.45941346    -0.70810
O375        O  0.55207130  0.53636035  0.45763971    -0.70360
O376        O  0.47055756  0.52235059  0.54391528    -0.61610
O377        O  0.55380588  0.53839692  0.54303657    -0.74120
O378        O  0.46836430  0.51950441  0.45861570    -0.72900
Cu379      Cu  0.48749836  0.45905942  0.50237127     1.04560
Cu380      Cu  0.51214688  0.53158302  0.50070799     1.04330
C381        C  0.44315408  0.48202849  0.44641409     0.93400
C382        C  0.55556844  0.50751044  0.55710194     0.92540
C383        C  0.44606607  0.48586922  0.55845024     0.84690
C384        C  0.55407965  0.50513027  0.44500865     0.90960
C385        C  0.65264286  0.53692392  0.64392700    -0.00010
C386        C  0.63448806  0.49883781  0.62298764    -0.11880
C387        C  0.60195069  0.48769524  0.59540061     0.02230
C388        C  0.58714458  0.51518904  0.58838996    -0.00090
C389        C  0.60364267  0.55189285  0.61145595    -0.11820
C390        C  0.63566195  0.56268776  0.63917853     0.02110
H391        H  0.64715872  0.47875274  0.62666026     0.15090
H392        H  0.59168706  0.57257809  0.60766730     0.15090
C393        C  0.65016999  0.60028555  0.66272154     0.36740
C394        C  0.58607039  0.44893819  0.57351221     0.36650
N395        N  0.66168431  0.63037118  0.68159658    -0.43600
N396        N  0.57336903  0.41775383  0.55617314    -0.43600
C397        C  0.53794524  0.89067615  0.64674290    -0.00010
C398        C  0.56459093  0.93433841  0.64258634    -0.11880
C399        C  0.55665846  0.95704376  0.61463598     0.02230
C400        C  0.52062006  0.93631270  0.59014128    -0.00090
C401        C  0.49226689  0.89308310  0.59611140    -0.11820
C402        C  0.50064587  0.87015412  0.62392374     0.02110
H403        H  0.59260233  0.95103831  0.66082439     0.15090
H404        H  0.46419583  0.87672661  0.57789547     0.15090
C405        C  0.47151132  0.82552511  0.62664924     0.36740
C406        C  0.58639941  0.00164573  0.61201044     0.36650
N407        N  0.44783608  0.78976328  0.62862984    -0.43600
N408        N  0.61043739  0.03731616  0.60991413    -0.43600
C409        C  0.34957562  0.46372428  0.64380895    -0.00010
C410        C  0.36610740  0.43755019  0.64280442    -0.11880
C411        C  0.39840749  0.44502782  0.61654309     0.02230
C412        C  0.41528482  0.47964510  0.59019870    -0.00090
C413        C  0.40105848  0.50780246  0.59333074    -0.11820
C414        C  0.36846227  0.50014577  0.61982472     0.02110
H415        H  0.35295610  0.41024462  0.66209790     0.15090
H416        H  0.41411319  0.53491485  0.57380559     0.15090
C417        C  0.35349339  0.52872698  0.61992020     0.36740
C418        C  0.41336821  0.41639146  0.61750760     0.36650
N419        N  0.34170853  0.55183572  0.61994955    -0.43600
N420        N  0.42524259  0.39336774  0.61833970    -0.43600
C421        C  0.45680086  0.11428602  0.63565699    -0.00010
C422        C  0.49771941  0.12162665  0.63616953    -0.11880
C423        C  0.50971015  0.10044615  0.60948965     0.02230
C424        C  0.48013815  0.07080169  0.58211397    -0.00090
C425        C  0.44012521  0.06532940  0.58044009    -0.11820
C426        C  0.42853057  0.08705725  0.60606066     0.02110
H427        H  0.51996612  0.14293326  0.65821197     0.15090
H428        H  0.41761545  0.04413322  0.55848511     0.15090
C429        C  0.38773825  0.08160976  0.59991122     0.36740
C430        C  0.55191976  0.10876056  0.61183500     0.36650
N431        N  0.35499783  0.07700636  0.59473529    -0.43600
N432        N  0.58586030  0.11566577  0.61363227    -0.43600
C433        C  0.17968163  0.09089921  0.75088968    -0.00010
C434        C  0.15601806  0.08370212  0.78590647    -0.11880
C435        C  0.11216924  0.06206497  0.78440469     0.02230
C436        C  0.09151393  0.04812391  0.74727452    -0.00090
C437        C  0.11519023  0.05650031  0.71215150    -0.11820
C438        C  0.15895190  0.07747226  0.71365947     0.02110
H439        H  0.17178091  0.09403612  0.81457592     0.15090
H440        H  0.09934324  0.04610856  0.68354557     0.15090
C441        C  0.18184190  0.08596490  0.67650450     0.36740
C442        C  0.08900603  0.05384889  0.82131820     0.36650
N443        N  0.20016024  0.09286159  0.64669105    -0.43600
N444        N  0.07050194  0.04736238  0.85095993    -0.43600
C445        C  0.04520894  0.09066545  0.74507377    -0.00010
C446        C  0.04899525  0.11024285  0.78200974    -0.11880
C447        C  0.06913452  0.15394439  0.78488599     0.02230
C448        C  0.08580959  0.17889531  0.75009596    -0.00090
C449        C  0.08226876  0.15901288  0.71320582    -0.11820
C450        C  0.06222795  0.11536022  0.71048572     0.02110
H451        H  0.03620333  0.09123299  0.80871118     0.15090
H452        H  0.09477619  0.17756128  0.68620455     0.15090
C453        C  0.05944584  0.09660794  0.67188387     0.36740
C454        C  0.07369095  0.17206892  0.82415662     0.36650
N455        N  0.05747170  0.08169197  0.64091796    -0.43600
N456        N  0.07726787  0.18632974  0.85578127    -0.43600
C457        C  0.95620851  0.90885789  0.74027612    -0.00010
C458        C  0.93328573  0.88732550  0.77453365    -0.11880
C459        C  0.91224521  0.84354408  0.77651522     0.02230
C460        C  0.91346788  0.82060672  0.74347390    -0.00090
C461        C  0.93570099  0.84203696  0.70897404    -0.11820
C462        C  0.95738736  0.88581678  0.70726328     0.02110
H463        H  0.93208446  0.90487268  0.79987013     0.15090
H464        H  0.93668066  0.82449976  0.68350158     0.15090
C465        C  0.98022569  0.90610752  0.67114617     0.36740
C466        C  0.88846704  0.82288290  0.81214758     0.36650
N467        N  0.99842852  0.92194538  0.64199266    -0.43600
N468        N  0.86935112  0.80635335  0.84070008    -0.43600
C469        C  0.90970730  0.95167753  0.73753566    -0.00010
C470        C  0.88723800  0.94984118  0.77205294    -0.11880
C471        C  0.84335811  0.92805362  0.77182593     0.02230
C472        C  0.82132947  0.90612640  0.73719354    -0.00090
C473        C  0.84354466  0.90782068  0.70273717    -0.11820
C474        C  0.88743515  0.93088316  0.70243599     0.02110
H475        H  0.90408369  0.96593123  0.79904375     0.15090
H476        H  0.82651074  0.89164796  0.67581708     0.15090
C477        C  0.90854307  0.93408917  0.66523520     0.36740
C478        C  0.82158996  0.92981843  0.80683772     0.36650
N479        N  0.92458174  0.93661179  0.63480819    -0.43600
N480        N  0.80408792  0.93166991  0.83465495    -0.43600
C481        C  0.09020774  0.91535994  0.75565859    -0.00010
C482        C  0.06974699  0.91942688  0.78896419    -0.11880
C483        C  0.04788866  0.94025483  0.78562494     0.02230
C484        C  0.04688448  0.95771922  0.74857586    -0.00090
C485        C  0.06880069  0.95502985  0.71574905    -0.11820
C486        C  0.09011099  0.93370346  0.71889763     0.02110
H487        H  0.06998377  0.90540728  0.81727276     0.15090
H488        H  0.06878829  0.96917094  0.68749037     0.15090
C489        C  0.11223082  0.93167167  0.68428854     0.36740
C490        C  0.02655530  0.94311530  0.82044099     0.36650
N491        N  0.13005138  0.93018658  0.65655790    -0.43600
N492        N  0.00932543  0.94522925  0.84834996    -0.43600
C493        C  0.35129941  0.89080557  0.85455906    -0.00010
C494        C  0.36028866  0.86745682  0.88101819    -0.11880
C495        C  0.39268167  0.88770239  0.90924922     0.02230
C496        C  0.41660176  0.93203106  0.91086001    -0.00090
C497        C  0.40939616  0.95502289  0.88237423    -0.11820
C498        C  0.37731231  0.93492412  0.85429584     0.02110
H499        H  0.34032477  0.83352958  0.88136195     0.15090
H500        H  0.42837316  0.98903843  0.88262117     0.15090
C501        C  0.37149297  0.96043293  0.82576320     0.36740
C502        C  0.39836668  0.86237740  0.93807169     0.36650
N503        N  0.36689480  0.98092805  0.80293843    -0.43600
N504        N  0.40280226  0.84202136  0.96120934    -0.43600
C505        C  0.91267671  0.08616390  0.74555342    -0.00010
C506        C  0.92163588  0.07491791  0.70839055    -0.11880
C507        C  0.94253529  0.05308357  0.70626468     0.02230
C508        C  0.95500343  0.04246556  0.74175806    -0.00090
C509        C  0.94642189  0.05391305  0.77890486    -0.11820
C510        C  0.92550263  0.07572466  0.78112434     0.02110
H511        H  0.91185393  0.08277941  0.68094577     0.15090
H512        H  0.95651864  0.04609759  0.80617988     0.15090
C513        C  0.91955964  0.08873576  0.82007178     0.36740
C514        C  0.95104896  0.04221271  0.66739985     0.36650
N515        N  0.91500553  0.09923916  0.85134242    -0.43600
N516        N  0.95773813  0.03372801  0.63604167    -0.43600
C517        C  0.65859370  0.11365058  0.86255053    -0.00010
C518        C  0.66688871  0.10266162  0.90006887    -0.11880
C519        C  0.63504221  0.08110492  0.92813004     0.02230
C520        C  0.59381255  0.07015798  0.91892461    -0.00090
C521        C  0.58569781  0.08320898  0.88246823    -0.11820
C522        C  0.61771991  0.10462867  0.85406435     0.02110
H523        H  0.69840500  0.11033867  0.90729055     0.15090
H524        H  0.55398316  0.07505325  0.87548939     0.15090
C525        C  0.60713139  0.11422252  0.81566226     0.36740
C526        C  0.64562606  0.07116535  0.96644403     0.36650
N527        N  0.59844718  0.12172130  0.78486420    -0.43600
N528        N  0.65411424  0.06335247  0.99718689    -0.43600
C529        C  0.58526313  0.51216722  0.41347099    -0.00010
C530        C  0.59721718  0.54528505  0.38651473    -0.11880
C531        C  0.62936047  0.55649945  0.35871977     0.02230
C532        C  0.65096913  0.53482957  0.35773142    -0.00090
C533        C  0.63742860  0.49997456  0.38279392    -0.11820
C534        C  0.60485053  0.48847398  0.41060612     0.02110
H535        H  0.58165896  0.56294423  0.38742896     0.15090
H536        H  0.65375637  0.48306860  0.38212009     0.15090
C537        C  0.59416296  0.45401710  0.43734645     0.36740
C538        C  0.63927479  0.59026361  0.33126204     0.36650
N539        N  0.58568716  0.42635028  0.45870002    -0.43600
N540        N  0.64713221  0.61725787  0.30922965    -0.43600
C541        C  0.47748307  0.06601492  0.41607356    -0.00010
C542        C  0.50676218  0.08992973  0.38601747    -0.11880
C543        C  0.49795605  0.11174601  0.35726310     0.02230
C544        C  0.45921768  0.10984393  0.35844849    -0.00090
C545        C  0.43128654  0.08798179  0.38999566    -0.11820
C546        C  0.43998982  0.06639544  0.41857621     0.02110
H547        H  0.53604906  0.09055873  0.38423808     0.15090
H548        H  0.40212465  0.08752921  0.39235969     0.15090
C549        C  0.41022830  0.04593965  0.45079758     0.36740
C550        C  0.52829020  0.13400044  0.32599289     0.36650
N551        N  0.38636564  0.02969823  0.47659909    -0.43600
N552        N  0.55281974  0.15186939  0.30105409    -0.43600
C553        C  0.40961836  0.47301676  0.41659001    -0.00010
C554        C  0.40612668  0.50616296  0.40120292    -0.11880
C555        C  0.37297973  0.49858126  0.37557999     0.02230
C556        C  0.34233768  0.45698953  0.36471139    -0.00090
C557        C  0.34739458  0.42435977  0.37826292    -0.11820
C558        C  0.37980436  0.43162604  0.40407341     0.02110
H559        H  0.42879017  0.53818702  0.40995072     0.15090
H560        H  0.32539848  0.39232581  0.36911892     0.15090
C561        C  0.38016389  0.39521095  0.41785360     0.36740
C562        C  0.37061625  0.53398683  0.36239808     0.36650
N563        N  0.37998243  0.36581033  0.42890570    -0.43600
N564        N  0.36921013  0.56269565  0.35189979    -0.43600
C565        C  0.53500728  0.88401764  0.36006133    -0.00010
C566        C  0.51113105  0.86385769  0.39429436    -0.11880
C567        C  0.50173920  0.88586739  0.42233588     0.02230
C568        C  0.51616398  0.92869057  0.41599597    -0.00090
C569        C  0.53837977  0.94818600  0.38086338    -0.11820
C570        C  0.54758767  0.92618662  0.35287675     0.02110
H571        H  0.50192830  0.83165072  0.40028704     0.15090
H572        H  0.54889080  0.98083916  0.37544695     0.15090
C573        C  0.56994410  0.94746986  0.31685012     0.36740
C574        C  0.48037698  0.86488602  0.45886640     0.36650
N575        N  0.58765548  0.96431999  0.28782408    -0.43600
N576        N  0.46355619  0.84820090  0.48829002    -0.43600
C577        C  0.09160217  0.04675878  0.24323431    -0.00010
C578        C  0.11036806  0.06973566  0.27839769    -0.11880
C579        C  0.15399843  0.09196424  0.28325331     0.02230
C580        C  0.17957620  0.09064628  0.25298902    -0.00090
C581        C  0.16108225  0.06758597  0.21801412    -0.11820
C582        C  0.11755946  0.04618245  0.21264871     0.02110
H583        H  0.09079880  0.07014564  0.30218561     0.15090
H584        H  0.18083423  0.06701030  0.19448539     0.15090
C585        C  0.10073126  0.02532592  0.17485906     0.36740
C586        C  0.17184663  0.11536083  0.31974946     0.36650
N587        N  0.08773994  0.00903478  0.14426710    -0.43600
N588        N  0.18621723  0.13415127  0.34898603    -0.43600
C589        C  0.04683319  0.09165609  0.24232885    -0.00010
C590        C  0.04363223  0.10996260  0.27789294    -0.11880
C591        C  0.06404592  0.15360403  0.28200819     0.02230
C592        C  0.08862776  0.17983683  0.25017113    -0.00090
C593        C  0.09236179  0.16148985  0.21492505    -0.11820
C594        C  0.07195753  0.11793315  0.21080577     0.02110
H595        H  0.02459570  0.08995569  0.30233533     0.15090
H596        H  0.11129305  0.18131636  0.19034025     0.15090
C597        C  0.07625052  0.10136200  0.17327143     0.36740
C598        C  0.05727168  0.17036274  0.31827572     0.36650
N599        N  0.07984629  0.08906380  0.14260681    -0.43600
N600        N  0.05164732  0.18368961  0.34733674    -0.43600
C601        C  0.95362757  0.90941932  0.24019623    -0.00010
C602        C  0.94988027  0.88966306  0.27693720    -0.11880
C603        C  0.92964136  0.84594854  0.27941668     0.02230
C604        C  0.91205694  0.82114041  0.24468343    -0.00090
C605        C  0.91621500  0.84105650  0.20786194    -0.11820
C606        C  0.93688953  0.88481661  0.20537405     0.02110
H607        H  0.96354977  0.90860023  0.30360000     0.15090
H608        H  0.90324376  0.82238230  0.18093740     0.15090
C609        C  0.94205259  0.90379366  0.16656002     0.36740
C610        C  0.92977269  0.82766678  0.31740196     0.36650
N611        N  0.94648422  0.91874117  0.13523649    -0.43600
N612        N  0.93020646  0.81307362  0.34778994    -0.43600
C613        C  0.90903666  0.95361959  0.24098804    -0.00010
C614        C  0.89018496  0.93526956  0.27781537    -0.11880
C615        C  0.84649601  0.91278628  0.28219898     0.02230
C616        C  0.82093894  0.90836208  0.24930478    -0.00090
C617        C  0.83966484  0.92625117  0.21241661    -0.11820
C618        C  0.88334131  0.94899954  0.20807769     0.02110
H619        H  0.90975217  0.93861996  0.30318856     0.15090
H620        H  0.82005828  0.92269970  0.18699676     0.15090
C621        C  0.90072252  0.96660228  0.16938592     0.36740
C622        C  0.82854441  0.89297639  0.32012830     0.36650
N623        N  0.91385322  0.98021615  0.13797509    -0.43600
N624        N  0.81408961  0.87681774  0.35042621    -0.43600
C625        C  0.04355541  0.95529744  0.24323178    -0.00010
C626        C  0.04579676  0.93441960  0.20929040    -0.11880
C627        C  0.06730102  0.91320670  0.21056117     0.02230
C628        C  0.08566751  0.91150004  0.24669460    -0.00090
C629        C  0.08168384  0.93052012  0.28124367    -0.11820
C630        C  0.06089791  0.95257039  0.27972120     0.02110
H631        H  0.03128930  0.93534979  0.18158619     0.15090
H632        H  0.09526126  0.92857125  0.30919840     0.15090
C633        C  0.05682878  0.97127935  0.31598246     0.36740
C634        C  0.06963044  0.89292598  0.17463228     0.36650
N635        N  0.05341446  0.98621617  0.34502761    -0.43600
N636        N  0.07155474  0.87666971  0.14586259    -0.43600
C637        C  0.41247758  0.93313776  0.08664846    -0.00010
C638        C  0.38749904  0.88916732  0.08470822    -0.11880
C639        C  0.35435868  0.86668176  0.11179803     0.02230
C640        C  0.34627461  0.88844874  0.14156555    -0.00090
C641        C  0.37293916  0.93210137  0.14484890    -0.11820
C642        C  0.40586276  0.95447940  0.11791956     0.02110
H643        H  0.39262379  0.87255736  0.06087801     0.15090
H644        H  0.36749314  0.94896905  0.16817912     0.15090
C645        C  0.43275140  0.99925689  0.12342582     0.36740
C646        C  0.32742955  0.82194447  0.10648168     0.36650
N647        N  0.45442610  0.03509142  0.12788657    -0.43600
N648        N  0.30582324  0.78609252  0.10208583    -0.43600
C649        C  0.95547085  0.04454328  0.24114939    -0.00010
C650        C  0.93425459  0.04161564  0.27694212    -0.11880
C651        C  0.91064185  0.06061872  0.28053993     0.02230
C652        C  0.90870361  0.08356080  0.24819205    -0.00090
C653        C  0.93017165  0.08700610  0.21264989    -0.11820
C654        C  0.95344288  0.06767809  0.20882089     0.02110
H655        H  0.93586620  0.02406876  0.30194056     0.15090
H656        H  0.92855951  0.10471765  0.18778325     0.15090
C657        C  0.97359820  0.07106424  0.17096667     0.36740
C658        C  0.88782691  0.05533446  0.31719205     0.36650
N659        N  0.98895601  0.07392395  0.14006570    -0.43600
N660        N  0.86929707  0.05086638  0.34646454    -0.43600
C661        C  0.64844468  0.10988961  0.14664489    -0.00010
C662        C  0.64888827  0.13129533  0.11201643    -0.11880
C663        C  0.61776712  0.11090569  0.08269576     0.02230
C664        C  0.58563299  0.06863023  0.08827742    -0.00090
C665        C  0.58405022  0.04811976  0.12383403    -0.11820
C666        C  0.61492010  0.06845039  0.15305990     0.02110
H667        H  0.67487415  0.16300852  0.10676286     0.15090
H668        H  0.55893790  0.01584422  0.12847496     0.15090
C669        C  0.61163489  0.04612272  0.18941985     0.36740
C670        C  0.62140679  0.13269584  0.04582347     0.36650
N671        N  0.60896830  0.02837178  0.21867405    -0.43600
N672        N  0.62442296  0.14999399  0.01614015    -0.43600
C673        C  0.93269192  0.51566692  0.08992809    -0.00010
C674        C  0.88860234  0.49124923  0.08808785    -0.11880
C675        C  0.86378772  0.50013262  0.11296338     0.02230
C676        C  0.88321063  0.53391971  0.14021687    -0.00090
C677        C  0.92703160  0.55629172  0.14390451    -0.11820
C678        C  0.95174858  0.54732703  0.11944272     0.02110
H679        H  0.87352557  0.46661990  0.06578815     0.15090
H680        H  0.94216022  0.58170031  0.16545857     0.15090
C681        C  0.99660469  0.57108674  0.12547386     0.36740
C682        C  0.81885472  0.47628179  0.10784401     0.36650
N683        N  0.03252284  0.59000546  0.13039845    -0.43600
N684        N  0.78283290  0.45717018  0.10367062    -0.43600
C685        C  0.07074329  0.48217806  0.08805240    -0.00010
C686        C  0.04922034  0.44565959  0.11129656    -0.11880
C687        C  0.07052319  0.43439141  0.13780275     0.02230
C688        C  0.11466453  0.45950565  0.14106489    -0.00090
C689        C  0.13605971  0.49741932  0.11991111    -0.11820
C690        C  0.11461790  0.50899196  0.09353658     0.02110
H691        H  0.01543711  0.42548552  0.10858109     0.15090
H692        H  0.16989698  0.51708164  0.12250616     0.15090
C693        C  0.13894511  0.54734053  0.07109540     0.36740
C694        C  0.04600965  0.39719470  0.16181113     0.36650
N695        N  0.15857191  0.57814090  0.05321831    -0.43600
N696        N  0.02621611  0.36742610  0.18103964    -0.43600
C697        C  0.12261618  0.47034755  0.86504958    -0.00010
C698        C  0.10074554  0.48891688  0.85087324    -0.11880
C699        C  0.07734955  0.49820462  0.87731012     0.02230
C700        C  0.07588572  0.48888894  0.91839357    -0.00090
C701        C  0.09940393  0.47232453  0.93275384    -0.11820
C702        C  0.12275442  0.46313657  0.90650787     0.02110
H703        H  0.10008976  0.49402191  0.81900703     0.15090
H704        H  0.09881064  0.46575561  0.96445714     0.15090
C705        C  0.14622910  0.44575082  0.92267881     0.36740
C706        C  0.05319515  0.51497192  0.86151723     0.36650
N707        N  0.16519973  0.43197307  0.93557050    -0.43600
N708        N  0.03363207  0.52826987  0.84903898    -0.43600
C709        C  0.93346563  0.52392401  0.92158225    -0.00010
C710        C  0.90613128  0.49365798  0.89368179    -0.11880
C711        C  0.88206811  0.50195728  0.86713928     0.02230
C712        C  0.88473198  0.54114073  0.86865968    -0.00090
C713        C  0.91026853  0.57005804  0.89829292    -0.11820
C714        C  0.93474812  0.56229974  0.92396703     0.02110
H715        H  0.90429503  0.46377610  0.89190896     0.15090
H716        H  0.91148120  0.59948143  0.90170051     0.15090
C717        C  0.96025901  0.59447715  0.95292681     0.36740
C718        C  0.85617377  0.47010363  0.83825719     0.36650
N719        N  0.98078353  0.62046491  0.97587344    -0.43600
N720        N  0.83544083  0.44410319  0.81539963    -0.43600
C721        C  0.47555816  0.40901663  0.08596044    -0.00010
C722        C  0.50839056  0.41029958  0.10791682    -0.11880
C723        C  0.50045387  0.37953459  0.13679827     0.02230
C724        C  0.45887374  0.34634808  0.14408110    -0.00090
C725        C  0.42658854  0.34417650  0.12076121    -0.11820
C726        C  0.43417680  0.37482031  0.09254524     0.02110
H727        H  0.54039333  0.43589119  0.10314196     0.15090
H728        H  0.39463060  0.31817277  0.12455758     0.15090
C729        C  0.39828785  0.36938617  0.07078082     0.36740
C730        C  0.53538138  0.38388974  0.15932470     0.36650
N731        N  0.36936582  0.36467971  0.05344534    -0.43600
N732        N  0.56365400  0.38764705  0.17715263    -0.43600
C733        C  0.48963655  0.41343021  0.91755921    -0.00010
C734        C  0.50637493  0.42484942  0.87871287    -0.11880
C735        C  0.49819278  0.39396610  0.84985258     0.02230
C736        C  0.47313134  0.35116135  0.86009531    -0.00090
C737        C  0.45904628  0.34017516  0.89969452    -0.11820
C738        C  0.46717085  0.37076607  0.92833160     0.02110
H739        H  0.52411042  0.45772654  0.87042345     0.15090
H740        H  0.44016927  0.30730936  0.90791641     0.15090
C741        C  0.45198747  0.35742634  0.96859428     0.36740
C742        C  0.51310814  0.40678260  0.80943220     0.36650
N743        N  0.43993668  0.34611912  0.00078480    -0.43600
N744        N  0.52504769  0.41710094  0.77700726    -0.43600
C745        C  0.51022460  0.58724147  0.08282837    -0.00010
C746        C  0.48735128  0.57730583  0.11882410    -0.11880
C747        C  0.49657497  0.60862014  0.14764720     0.02230
C748        C  0.52869689  0.65055339  0.14007251    -0.00090
C749        C  0.54903471  0.66049763  0.10278998    -0.11820
C750        C  0.54039278  0.62951185  0.07453127     0.02110
H751        H  0.46389258  0.54485914  0.12531157     0.15090
H752        H  0.57305920  0.69273337  0.09614148     0.15090
C753        C  0.56348413  0.64219546  0.03733122     0.36740
C754        C  0.47494100  0.59645958  0.18561295     0.36650
N755        N  0.58243807  0.65311047  0.00779840    -0.43600
N756        N  0.45758200  0.58656615  0.21607015    -0.43600
C757        C  0.52070436  0.58854576  0.91489370    -0.00010
C758        C  0.56123947  0.62429238  0.91399713    -0.11880
C759        C  0.57202164  0.65710595  0.88735450     0.02230
C760        C  0.54270670  0.65383348  0.85863101    -0.00090
C761        C  0.50163089  0.61886341  0.86007525    -0.11820
C762        C  0.49027886  0.58649703  0.88808096     0.02110
H763        H  0.58485349  0.62707185  0.93466313     0.15090
H764        H  0.47870602  0.61618797  0.83852851     0.15090
C765        C  0.44770808  0.55113662  0.88747128     0.36740
C766        C  0.61302726  0.69454889  0.89160022     0.36650
N767        N  0.41351694  0.52288879  0.88697464    -0.43600
N768        N  0.64580738  0.72455817  0.89526518    -0.43600
C769        C  0.93290790  0.40578655  0.41901861    -0.00010
C770        C  0.91011146  0.41045270  0.38820978    -0.11880
C771        C  0.88895314  0.37898964  0.35919902     0.02230
C772        C  0.89024031  0.34193759  0.36109740    -0.00090
C773        C  0.91094125  0.33648948  0.39340080    -0.11820
C774        C  0.93214564  0.36777660  0.42207235     0.02110
H775        H  0.91009656  0.43937318  0.38592527     0.15090
H776        H  0.91089186  0.30758560  0.39625580     0.15090
C777        C  0.95208948  0.35947897  0.45473908     0.36740
C778        C  0.86825332  0.38666422  0.32691579     0.36650
N779        N  0.96799541  0.35273258  0.48087654    -0.43600
N780        N  0.85166816  0.39304595  0.30116056    -0.43600
C781        C  0.93486037  0.41408379  0.58896529    -0.00010
C782        C  0.95740909  0.40390447  0.61523540    -0.11880
C783        C  0.93681116  0.37105673  0.64250879     0.02230
C784        C  0.89254161  0.34714755  0.64360185    -0.00090
C785        C  0.86987909  0.35904224  0.61947584    -0.11820
C786        C  0.89056889  0.39219513  0.59215316     0.02110
H787        H  0.99142426  0.42129076  0.61405411     0.15090
H788        H  0.83586121  0.34090388  0.62032572     0.15090
C789        C  0.86530794  0.40099559  0.56615881     0.36740
C790        C  0.96202718  0.36275107  0.66912621     0.36650
N791        N  0.84492469  0.40793215  0.54539159    -0.43600
N792        N  0.98234398  0.35621259  0.69039790    -0.43600
C793        C  0.06924736  0.59476436  0.58138074    -0.00010
C794        C  0.06642777  0.63045265  0.57707042    -0.11880
C795        C  0.08752780  0.66452339  0.60298951     0.02230
C796        C  0.11116217  0.66284948  0.63518465    -0.00090
C797        C  0.11588503  0.62809081  0.63834420    -0.11820
C798        C  0.09541575  0.59422849  0.61157670     0.02110
H799        H  0.04791063  0.63198254  0.55292037     0.15090
H800        H  0.13436698  0.62668537  0.66255972     0.15090
C801        C  0.10044996  0.55880752  0.61688349     0.36740
C802        C  0.08528866  0.70119928  0.59467762     0.36650
N803        N  0.10464422  0.53050048  0.62106157    -0.43600
N804        N  0.08334864  0.73045379  0.58779342    -0.43600
C805        C  0.06923348  0.59033849  0.41613658    -0.00010
C806        C  0.07160880  0.62836023  0.42367512    -0.11880
C807        C  0.09289541  0.66220929  0.39769574     0.02230
C808        C  0.11124525  0.65796214  0.36231267    -0.00090
C809        C  0.11114065  0.62074976  0.35587300    -0.11820
C810        C  0.09053743  0.58700530  0.38272346     0.02110
H811        H  0.05687796  0.63174027  0.45028324     0.15570
H812        H  0.12564073  0.61740976  0.32911653     0.15090
C813        C  0.08988460  0.54880260  0.37429256     0.36740
C814        C  0.09624092  0.70120433  0.40889925     0.36650
N815        N  0.08943163  0.51818791  0.36761517    -0.43600
N816        N  0.09887890  0.73236853  0.41805537    -0.43600
loop_ 
_geom_bond_atom_site_label_1 
_geom_bond_atom_site_label_2 
_geom_bond_distance 
_geom_bond_site_symmetry_2 
_ccdc_geom_bond_type 
O1           Cu9   2.004       .  S
O1           C11   1.276       .  A
O2           Cu9   1.998   1_655  S
O2           C12   1.278       .  A
O3           Cu9   2.011       .  S
O3           C13   1.277       .  A
O4           Cu9   2.003   1_655  S
O4           C14   1.279       .  A
O5          Cu10   2.001       .  S
O5           C14   1.276       .  A
O6          Cu10   1.992   1_455  S
O6           C13   1.277       .  A
O7          Cu10   2.007       .  S
O7           C12   1.277       .  A
O8          Cu10   2.000   1_455  S
O8           C11   1.279       .  A
Cu9         Cu10   2.373   1_455  S
C11         C793   1.478       .  S
C12         C769   1.478       .  S
C13         C805   1.474       .  S
C14         C781   1.481       .  S
O15         Cu23   2.015       .  S
O15          C25   1.277       .  A
O16         Cu23   1.999   1_554  S
O16          C26   1.277       .  A
O17         Cu23   2.024   1_554  S
O17          C27   1.278       .  A
O18         Cu23   2.018       .  S
O18          C28   1.279       .  A
O19         Cu24   2.010   1_556  S
O19          C28   1.275       .  A
O20         Cu24   2.007       .  S
O20          C27   1.278       .  A
O21         Cu24   2.031       .  S
O21          C26   1.280       .  A
O22         Cu24   2.014   1_556  S
O22          C25   1.281       .  A
Cu23        Cu24   2.369   1_556  S
C25         C757   1.493       .  S
C26         C721   1.497       .  S
C27         C745   1.479       .  S
C28         C733   1.475       .  S
O29         Cu37   2.022   1_556  S
O29          C39   1.279       .  A
O30         Cu37   2.015   1_455  S
O30          C40   1.281       .  A
O31         Cu37   2.016       .  S
O31          C41   1.278       .  A
O32         Cu37   2.015   1_456  S
O32          C42   1.278       .  A
O33         Cu38   2.009   1_556  S
O33          C42   1.276       .  A
O34         Cu38   2.007   1_655  S
O34          C41   1.279       .  A
O35         Cu38   2.004       .  S
O35          C40   1.276       .  A
O36         Cu38   1.999   1_656  S
O36          C39   1.278       .  A
Cu37        Cu38   2.371   1_655  S
C39         C709   1.489       .  S
C40         C685   1.488       .  S
C41         C673   1.485       .  S
C42         C700   1.472       .  S
N43          N44   1.324       .  A
N43          C47   1.350       .  A
N43         Cu51   2.087       .  S
N44          C45   1.339       .  A
N44         Cu50   2.062       .  S
C45          C46   1.377       .  A
C45          H48   1.082       .  S
C46         C661   1.474       .  S
C46          C47   1.385       .  A
C47          H49   1.082       .  S
Cu50         N53   2.061       .  S
Cu51         N61   2.086       .  S
Cu52         N54   2.053       .  S
Cu52         N60   2.053       .  S
N53          N54   1.319       .  A
N53          C57   1.344       .  A
N54          C55   1.343       .  A
C55          C56   1.379       .  A
C55          H58   1.082       .  S
C56         C652   1.466       .  S
C56          C57   1.381       .  A
C57          H59   1.082       .  S
N60          N61   1.322       .  A
N60          C64   1.336       .  A
N61          C62   1.350       .  A
C62          C63   1.391       .  A
C62          H65   1.081       .  S
C63         C772   1.484       .  S
C63          C64   1.380       .  A
C64          H66   1.082       .  S
N67          N68   1.323       .  A
N67          C71   1.350       .  A
N67         Cu75   2.089       .  S
N68          C69   1.337       .  A
N68         Cu74   2.055       .  S
C69          C70   1.377       .  A
C69          H72   1.082       .  S
C70         C640   1.478       .  S
C70          C71   1.388       .  A
C71          H73   1.082       .  S
Cu74         N77   2.054       .  S
Cu75         N85   2.089       .  S
Cu76         N78   2.052       .  S
Cu76         N84   2.053       .  S
N77          N78   1.318       .  A
N77          C81   1.342       .  A
N78          C79   1.343       .  A
C79          C80   1.380       .  A
C79          H82   1.082       .  S
C80         C628   1.466       .  S
C80          C81   1.381       .  A
C81          H83   1.082       .  S
N84          N85   1.323       .  A
N84          C88   1.336       .  A
N85          C86   1.351       .  A
C86          C87   1.389       .  A
C86          H89   1.082       .  S
C87         C808   1.480       .  S
C87          C88   1.378       .  A
C88          H90   1.082       .  S
C91         C649   1.489       .  S
C91          C92   1.416   1_545  A
C91          C96   1.420   1_655  A
C92         C613   1.493       .  S
C92          C93   1.410       .  A
C93         C601   1.490       .  S
C93          C94   1.412   1_655  A
C94         C625   1.484       .  S
C94          C95   1.417   1_565  A
C95         C577   1.498       .  S
C95          C96   1.418       .  A
C96         C589   1.494       .  S
N97          N98   1.323       .  A
N97         C101   1.355       .  A
N97        Cu105   2.103       .  S
N98          C99   1.336       .  A
N98        Cu104   2.059       .  S
C99         C100   1.378       .  A
C99         H102   1.082       .  S
C100        C748   1.485       .  S
C100        C101   1.393       .  A
C101        H103   1.082       .  S
Cu104       N107   2.058       .  S
Cu105       N115   2.104       .  S
Cu106       N108   2.068       .  S
Cu106       N114   2.069       .  S
N107        N108   1.318       .  A
N107        C111   1.344       .  A
N108        C109   1.346       .  A
C109        C110   1.385       .  A
C109        H112   1.082       .  S
C110        C616   1.476       .  S
C110        C111   1.382       .  A
C111        H113   1.082       .  S
N114        N115   1.326       .  A
N114        C118   1.340       .  A
N115        C116   1.352       .  A
C116        C117   1.388       .  A
C116        H119   1.082       .  S
C117        C565   1.479       .  S
C117        C118   1.376       .  A
C118        H120   1.082       .  S
N121        N122   1.322       .  A
N121        C125   1.353       .  A
N121       Cu129   2.099       .  S
N122        C123   1.336       .  A
N122       Cu128   2.066       .  S
C123        C124   1.384       .  A
C123        H126   1.081       .  S
C124        C556   1.496       .  S
C124        C125   1.395       .  A
C125        H127   1.081       .  S
Cu128       N131   2.067       .  S
Cu129       N139   2.099       .  S
Cu130       N132   2.057       .  S
Cu130       N138   2.057       .  S
N131        N132   1.318       .  A
N131        C135   1.346       .  A
N132        C133   1.342       .  A
C133        C134   1.385       .  A
C133        H136   1.081       .  S
C134        C592   1.482       .  S
C134        C135   1.387       .  A
C135        H137   1.081       .  S
N138        N139   1.323       .  A
N138        C142   1.338       .  A
N139        C140   1.352       .  A
C140        C141   1.391       .  A
C140        H143   1.082       .  S
C141        C688   1.483       .  S
C141        C142   1.378       .  A
C142        H144   1.082       .  S
N145        N146   1.323       .  A
N145        C149   1.354       .  A
N145       Cu153   2.103       .  S
N146        C147   1.337       .  A
N146       Cu152   2.067       .  S
C147        C148   1.383       .  A
C147        H150   1.082       .  S
C148        C724   1.496       .  S
C148        C149   1.396       .  A
C149        H151   1.081       .  S
Cu152       N155   2.068       .  S
Cu153       N163   2.103       .  S
Cu154       N156   2.065       .  S
Cu154       N162   2.065       .  S
N155        N156   1.319       .  A
N155        C159   1.346       .  A
N156        C157   1.345       .  A
C157        C158   1.383       .  A
C157        H160   1.082       .  S
C158        C580   1.474       .  S
C158        C159   1.383       .  A
C159        H161   1.082       .  S
N162        N163   1.324       .  A
N162        C166   1.338       .  A
N163        C164   1.353       .  A
C164        C165   1.393       .  A
C164        H167   1.082       .  S
C165        C544   1.489       .  S
C165        C166   1.380       .  A
C166        H168   1.082       .  S
N169        N170   1.324       .  A
N169        C173   1.353       .  A
N169       Cu177   2.101       .  S
N170        C171   1.338       .  A
N170       Cu176   2.062       .  S
C171        C172   1.378       .  A
C171        H174   1.082       .  S
C172        C532   1.483       .  S
C172        C173   1.390       .  A
C173        H175   1.082       .  S
Cu176       N179   2.062       .  S
Cu177       N187   2.101       .  S
Cu178       N180   2.064       .  S
Cu178       N186   2.065       .  S
N179        N180   1.318       .  A
N179        C183   1.344       .  A
N180        C181   1.345       .  A
C181        C182   1.386       .  A
C181        H184   1.081       .  S
C182        C604   1.482       .  S
C182        C183   1.386       .  A
C183        H185   1.081       .  S
N186        N187   1.325       .  A
N186        C190   1.339       .  A
N187        C188   1.353       .  A
C188        C189   1.390       .  A
C188        H191   1.082       .  S
C189        C676   1.481       .  S
C189        C190   1.377       .  A
C190        H192   1.082       .  S
N193        N194   1.323       .  A
N193        C197   1.350       .  A
N193       Cu201   2.089       .  S
N194        C195   1.336       .  A
N194       Cu200   2.051       .  S
C195        C196   1.377       .  A
C195        H198   1.082       .  S
C196        C784   1.477       .  S
C196        C197   1.388       .  A
C197        H199   1.082       .  S
Cu200       N203   2.050       .  S
Cu201       N211   2.089       .  S
Cu202       N204   2.050       .  S
Cu202       N210   2.051       .  S
N203        N204   1.317       .  A
N203        C207   1.342       .  A
N204        C205   1.342       .  A
C205        C206   1.384       .  A
C205        H208   1.081       .  S
C206        C505   1.473       .  S
C206        C207   1.383       .  A
C207        H209   1.082       .  S
N210        N211   1.323       .  A
N210        C214   1.336       .  A
N211        C212   1.350       .  A
C212        C213   1.389       .  A
C212        H215   1.082       .  S
C213        C517   1.477       .  S
C213        C214   1.377       .  A
C214        H216   1.082       .  S
N217        N218   1.322       .  A
N217        C221   1.351       .  A
N217       Cu225   2.090       .  S
N218        C219   1.335       .  A
N218       Cu224   2.048       .  S
C219        C220   1.378       .  A
C219        H222   1.081       .  S
C220        C796   1.482       .  S
C220        C221   1.391       .  A
C221        H223   1.082       .  S
Cu224       N227   2.048       .  S
Cu225       N235   2.091       .  S
Cu226       N228   2.055       .  S
Cu226       N234   2.057       .  S
N227        N228   1.317       .  A
N227        C231   1.341       .  A
N228        C229   1.344       .  A
C229        C230   1.381       .  A
C229        H232   1.082       .  S
C230        C481   1.466       .  S
C230        C231   1.379       .  A
C231        H233   1.082       .  S
N234        N235   1.324       .  A
N234        C238   1.337       .  A
N235        C236   1.351       .  A
C236        C237   1.387       .  A
C236        H239   1.082       .  S
C237        C493   1.475       .  S
C237        C238   1.376       .  A
C238        H240   1.082       .  S
C241        C508   1.480       .  S
C241        C242   1.413   1_545  A
C241        C246   1.411   1_655  A
C242        C469   1.492       .  S
C242        C243   1.414       .  A
C243        C457   1.490       .  S
C243        C244   1.415   1_655  A
C244        C484   1.484       .  S
C244        C245   1.411   1_565  A
C245        C436   1.486       .  S
C245        C246   1.408       .  A
C246        C445   1.487       .  S
N247        N248   1.325       .  A
N247        C251   1.354       .  A
N247       Cu255   2.107       .  S
N248        C249   1.337       .  A
N248       Cu254   2.058       .  S
C249        C250   1.374       .  A
C249        H252   1.082       .  S
C250        C736   1.478       .  S
C250        C251   1.391       .  A
C251        H253   1.082       .  S
Cu254       N257   2.056       .  S
Cu255       N265   2.107       .  S
Cu256       N258   2.059       .  S
Cu256       N264   2.058       .  S
N257        N258   1.317       .  A
N257        C261   1.344       .  A
N258        C259   1.344       .  A
C259        C260   1.385       .  A
C259        H262   1.082       .  S
C260        C433   1.476       .  S
C260        C261   1.383       .  A
C261        H263   1.082       .  S
N264        N265   1.323       .  A
N264        C268   1.336       .  A
N265        C266   1.354       .  A
C266        C267   1.394       .  A
C266        H269   1.082       .  S
C267        C421   1.490       .  S
C267        C268   1.379       .  A
C268        H270   1.081       .  S
N271        N272   1.322       .  A
N271        C275   1.355       .  A
N271       Cu279   2.104       .  S
N272        C273   1.336       .  A
N272       Cu278   2.051       .  S
C273        C274   1.378       .  A
C273        H276   1.082       .  S
C274        C409   1.488       .  S
C274        C275   1.395       .  A
C275        H277   1.082       .  S
Cu278       N281   2.052       .  S
Cu279       N289   2.106       .  S
Cu280       N282   2.067       .  S
Cu280       N288   2.069       .  S
N281        N282   1.316       .  A
N281        C285   1.341       .  A
N282        C283   1.346       .  A
C283        C284   1.390       .  A
C283        H286   1.081       .  S
C284        C448   1.486       .  S
C284        C285   1.385       .  A
C285        H287   1.082       .  S
N288        N289   1.326       .  A
N288        C292   1.340       .  A
N289        C290   1.353       .  A
C290        C291   1.387       .  A
C290        H293   1.082       .  S
C291        C697   1.477       .  S
C291        C292   1.375       .  A
C292        H294   1.082       .  S
N295        N296   1.325       .  A
N295        C299   1.355       .  A
N295       Cu303   2.110       .  S
N296        C297   1.337       .  A
N296       Cu302   2.063       .  S
C297        C298   1.378       .  A
C297        H300   1.082       .  S
C298        C760   1.489       .  S
C298        C299   1.393       .  A
C299        H301   1.082       .  S
Cu302       N305   2.064       .  S
Cu303       N313   2.110       .  S
Cu304       N306   2.052       .  S
Cu304       N312   2.053       .  S
N305        N306   1.317       .  A
N305        C309   1.345       .  A
N306        C307   1.344       .  A
C307        C308   1.380       .  A
C307        H310   1.082       .  S
C308        C472   1.470       .  S
C308        C309   1.383       .  A
C309        H311   1.082       .  S
N312        N313   1.323       .  A
N312        C316   1.335       .  A
N313        C314   1.355       .  A
C314        C315   1.397       .  A
C314        H317   1.081       .  S
C315        C397   1.492       .  S
C315        C316   1.379       .  A
C316        H318   1.082       .  S
N319        N320   1.325       .  A
N319        C323   1.354       .  A
N319       Cu327   2.108       .  S
N320        C321   1.337       .  A
N320       Cu326   2.056       .  S
C321        C322   1.376       .  A
C321        H324   1.082       .  S
C322        C385   1.483       .  S
C322        C323   1.392       .  A
C323        H325   1.082       .  S
Cu326       N329   2.055       .  S
Cu327       N337   2.107       .  S
Cu328       N330   2.054       .  S
Cu328       N336   2.055       .  S
N329        N330   1.316       .  A
N329        C333   1.343       .  A
N330        C331   1.344       .  A
C331        C332   1.384       .  A
C331        H334   1.081       .  S
C332        C460   1.474       .  S
C332        C333   1.383       .  A
C333        H335   1.081       .  S
N336        N337   1.322       .  A
N336        C340   1.334       .  A
N337        C338   1.355       .  A
C338        C339   1.399       .  A
C338        H341   1.081       .  S
C339        C712   1.498       .  S
C339        C340   1.382       .  A
C340        H342   1.082       .  S
O343       Cu351   2.011       .  S
O343        C353   1.277       .  A
O344       Cu351   2.010   1_545  S
O344        C354   1.279       .  A
O345       Cu351   2.006       .  S
O345        C355   1.276       .  A
O346       Cu351   1.999   1_545  S
O346        C356   1.279       .  A
O347       Cu352   2.023       .  S
O347        C356   1.278       .  A
O348       Cu352   2.019   1_565  S
O348        C355   1.279       .  A
O349       Cu352   2.013       .  S
O349        C354   1.277       .  A
O350       Cu352   2.012   1_565  S
O350        C353   1.279       .  A
Cu351      Cu352   2.370   1_565  S
C353        C400   1.490       .  S
C354        C541   1.485       .  S
C355        C568   1.478       .  S
C356        C424   1.488       .  S
O357       Cu365   1.999       .  S
O357        C367   1.275       .  A
O358       Cu365   2.005   1_564  S
O358        C368   1.279       .  A
O359       Cu365   2.002   1_554  S
O359        C369   1.276       .  A
O360       Cu365   1.997   1_565  S
O360        C370   1.278       .  A
O361       Cu366   2.009   1_556  S
O361        C370   1.277       .  A
O362       Cu366   2.003   1_545  S
O362        C369   1.278       .  A
O363       Cu366   2.001       .  S
O363        C368   1.276       .  A
O364       Cu366   2.003   1_546  S
O364        C367   1.278       .  A
Cu365      Cu366   2.376   1_546  S
C367        C520   1.470       .  S
C368        C637   1.475       .  S
C369        C664   1.469       .  S
C370        C496   1.477       .  S
O371       Cu379   2.000       .  S
O371        C381   1.277       .  A
O372       Cu379   2.001       .  S
O372        C382   1.275       .  A
O373       Cu379   2.010       .  S
O373        C383   1.279       .  A
O374       Cu379   2.015       .  S
O374        C384   1.278       .  A
O375       Cu380   2.010       .  S
O375        C384   1.279       .  A
O376       Cu380   2.012       .  S
O376        C383   1.277       .  A
O377       Cu380   2.021       .  S
O377        C382   1.281       .  A
O378       Cu380   2.024       .  S
O378        C381   1.279       .  A
Cu379      Cu380   2.366       .  S
C381        C553   1.497       .  S
C382        C388   1.489       .  S
C383        C412   1.489       .  S
C384        C529   1.487       .  S
C385        C386   1.402       .  A
C385        C390   1.414       .  A
C386        C387   1.406       .  A
C386        H391   1.085       .  S
C387        C388   1.420       .  A
C387        C394   1.444       .  S
C388        C389   1.403       .  A
C389        C390   1.397       .  A
C389        H392   1.085       .  S
C390        C393   1.445       .  S
C393        N395   1.157       .  T
C394        N396   1.157       .  T
C397        C398   1.407       .  A
C397        C402   1.414       .  A
C398        C399   1.396       .  A
C398        H403   1.084       .  S
C399        C400   1.413       .  A
C399        C406   1.445   1_565  S
C400        C401   1.410       .  A
C401        C402   1.408       .  A
C401        H404   1.085       .  S
C402        C405   1.443       .  S
C405        N407   1.157       .  T
C406        N408   1.157       .  T
C409        C410   1.405       .  A
C409        C414   1.412       .  A
C410        C411   1.396       .  A
C410        H415   1.085       .  S
C411        C412   1.413       .  A
C411        C418   1.445       .  S
C412        C413   1.410       .  A
C413        C414   1.408       .  A
C413        H416   1.084       .  S
C414        C417   1.443       .  S
C417        N419   1.157       .  T
C418        N420   1.157       .  T
C421        C422   1.407       .  A
C421        C426   1.416       .  A
C422        C423   1.410       .  A
C422        H427   1.084       .  S
C423        C424   1.416       .  A
C423        C430   1.443       .  S
C424        C425   1.402       .  A
C425        C426   1.394       .  A
C425        H428   1.085       .  S
C426        C429   1.445       .  S
C429        N431   1.157       .  T
C430        N432   1.157       .  T
C433        C434   1.403       .  A
C433        C438   1.411       .  A
C434        C435   1.400       .  A
C434        H439   1.084       .  S
C435        C436   1.409       .  A
C435        C442   1.443       .  S
C436        C437   1.401       .  A
C437        C438   1.398       .  A
C437        H440   1.084       .  S
C438        C441   1.444       .  S
C441        N443   1.157       .  T
C442        N444   1.157       .  T
C445        C446   1.401       .  A
C445        C450   1.407       .  A
C446        C447   1.400       .  A
C446        H451   1.084       .  S
C447        C448   1.415       .  A
C447        C454   1.443       .  S
C448        C449   1.407       .  A
C449        C450   1.399       .  A
C449        H452   1.084       .  S
C450        C453   1.443       .  S
C453        N455   1.157       .  T
C454        N456   1.157       .  T
C457        C458   1.403       .  A
C457        C462   1.412       .  A
C458        C459   1.399       .  A
C458        H463   1.084       .  S
C459        C460   1.411       .  A
C459        C466   1.443       .  S
C460        C461   1.401       .  A
C461        C462   1.398       .  A
C461        H464   1.085       .  S
C462        C465   1.442       .  S
C465        N467   1.157       .  T
C466        N468   1.157       .  T
C469        C470   1.405       .  A
C469        C474   1.412       .  A
C470        C471   1.400       .  A
C470        H475   1.084       .  S
C471        C472   1.407       .  A
C471        C478   1.443       .  S
C472        C473   1.399       .  A
C473        C474   1.400       .  A
C473        H476   1.085       .  S
C474        C477   1.441       .  S
C477        N479   1.157       .  T
C478        N480   1.157       .  T
C481        C482   1.400       .  A
C481        C486   1.408       .  A
C482        C483   1.398       .  A
C482        H487   1.084       .  S
C483        C484   1.410       .  A
C483        C490   1.443       .  S
C484        C485   1.401       .  A
C485        C486   1.396       .  A
C485        H488   1.083       .  S
C486        C489   1.444       .  S
C489        N491   1.157       .  T
C490        N492   1.157       .  T
C493        C494   1.403       .  A
C493        C498   1.411       .  A
C494        C495   1.404       .  A
C494        H499   1.085       .  S
C495        C496   1.415       .  A
C495        C502   1.444       .  S
C496        C497   1.401       .  A
C497        C498   1.394       .  A
C497        H500   1.086       .  S
C498        C501   1.445       .  S
C501        N503   1.157       .  T
C502        N504   1.157       .  T
C505        C506   1.403       .  A
C505        C510   1.412       .  A
C506        C507   1.396       .  A
C506        H511   1.084       .  S
C507        C508   1.406       .  A
C507        C514   1.442       .  S
C508        C509   1.401       .  A
C509        C510   1.396       .  A
C509        H512   1.084       .  S
C510        C513   1.444       .  S
C513        N515   1.157       .  T
C514        N516   1.157       .  T
C517        C518   1.404       .  A
C517        C522   1.412       .  A
C518        C519   1.393       .  A
C518        H523   1.085       .  S
C519        C520   1.408       .  A
C519        C526   1.445       .  S
C520        C521   1.404       .  A
C521        C522   1.404       .  A
C521        H524   1.085       .  S
C522        C525   1.443       .  S
C525        N527   1.157       .  T
C526        N528   1.157       .  T
C529        C530   1.403       .  A
C529        C534   1.417       .  A
C530        C531   1.397       .  A
C530        H535   1.085       .  S
C531        C532   1.413       .  A
C531        C538   1.445       .  S
C532        C533   1.403       .  A
C533        C534   1.407       .  A
C533        H536   1.085       .  S
C534        C537   1.443       .  S
C537        N539   1.157       .  T
C538        N540   1.157       .  T
C541        C542   1.407       .  A
C541        C546   1.412       .  A
C542        C543   1.408       .  A
C542        H547   1.085       .  S
C543        C544   1.414       .  A
C543        C550   1.443       .  S
C544        C545   1.405       .  A
C545        C546   1.396       .  A
C545        H548   1.085       .  S
C546        C549   1.445       .  S
C549        N551   1.157       .  T
C550        N552   1.157       .  T
C553        C554   1.411       .  A
C553        C558   1.417       .  A
C554        C555   1.409       .  A
C554        H559   1.085       .  S
C555        C556   1.414       .  A
C555        C562   1.442       .  S
C556        C557   1.405       .  A
C557        C558   1.395       .  A
C557        H560   1.084       .  S
C558        C561   1.445       .  S
C561        N563   1.157       .  T
C562        N564   1.157       .  T
C565        C566   1.403       .  A
C565        C570   1.411       .  A
C566        C567   1.405       .  A
C566        H571   1.085       .  S
C567        C568   1.414       .  A
C567        C574   1.444       .  S
C568        C569   1.401       .  A
C569        C570   1.399       .  A
C569        H572   1.085       .  S
C570        C573   1.443       .  S
C573        N575   1.157       .  T
C574        N576   1.157       .  T
C577        C578   1.406       .  A
C577        C582   1.415       .  A
C578        C579   1.401       .  A
C578        H583   1.084       .  S
C579        C580   1.408       .  A
C579        C586   1.443       .  S
C580        C581   1.400       .  A
C581        C582   1.401       .  A
C581        H584   1.085       .  S
C582        C585   1.443       .  S
C585        N587   1.157       .  T
C586        N588   1.157       .  T
C589        C590   1.404       .  A
C589        C594   1.411       .  A
C590        C591   1.401       .  A
C590        H595   1.084       .  S
C591        C592   1.412       .  A
C591        C598   1.443       .  S
C592        C593   1.403       .  A
C593        C594   1.398       .  A
C593        H596   1.084       .  S
C594        C597   1.441       .  S
C597        N599   1.157       .  T
C598        N600   1.157       .  T
C601        C602   1.402       .  A
C601        C606   1.409       .  A
C602        C603   1.400       .  A
C602        H607   1.084       .  S
C603        C604   1.413       .  A
C603        C610   1.443       .  S
C604        C605   1.404       .  A
C605        C606   1.400       .  A
C605        H608   1.084       .  S
C606        C609   1.442       .  S
C609        N611   1.157       .  T
C610        N612   1.157       .  T
C613        C614   1.405       .  A
C613        C618   1.411       .  A
C614        C615   1.401       .  A
C614        H619   1.084       .  S
C615        C616   1.409       .  A
C615        C622   1.443       .  S
C616        C617   1.401       .  A
C617        C618   1.400       .  A
C617        H620   1.084       .  S
C618        C621   1.441       .  S
C621        N623   1.157       .  T
C622        N624   1.157       .  T
C625        C626   1.401       .  A
C625        C630   1.410       .  A
C626        C627   1.395       .  A
C626        H631   1.083       .  S
C627        C628   1.407       .  A
C627        C634   1.444       .  S
C628        C629   1.401       .  A
C629        C630   1.399       .  A
C629        H632   1.084       .  S
C630        C633   1.443       .  S
C633        N635   1.157       .  T
C634        N636   1.157       .  T
C637        C638   1.405       .  A
C637        C642   1.410       .  A
C638        C639   1.404       .  A
C638        H643   1.084       .  S
C639        C640   1.412       .  A
C639        C646   1.443       .  S
C640        C641   1.404       .  A
C641        C642   1.395       .  A
C641        H644   1.085       .  S
C642        C645   1.445       .  S
C645        N647   1.157   1_565  T
C646        N648   1.157       .  T
C649        C650   1.405       .  A
C649        C654   1.412       .  A
C650        C651   1.398       .  A
C650        H655   1.084       .  S
C651        C652   1.406       .  A
C651        C658   1.443       .  S
C652        C653   1.399       .  A
C653        C654   1.398       .  A
C653        H656   1.085       .  S
C654        C657   1.441       .  S
C657        N659   1.157       .  T
C658        N660   1.157       .  T
C661        C662   1.403       .  A
C661        C666   1.410       .  A
C662        C663   1.403       .  A
C662        H667   1.085       .  S
C663        C664   1.412       .  A
C663        C670   1.444       .  S
C664        C665   1.399       .  A
C665        C666   1.395       .  A
C665        H668   1.086       .  S
C666        C669   1.443       .  S
C669        N671   1.157       .  T
C670        N672   1.157       .  T
C673        C674   1.408       .  A
C673        C678   1.413       .  A
C674        C675   1.406       .  A
C674        H679   1.084       .  S
C675        C676   1.410       .  A
C675        C682   1.443       .  S
C676        C677   1.403       .  A
C677        C678   1.397       .  A
C677        H680   1.085       .  S
C678        C681   1.445       .  S
C681        N683   1.157   1_655  T
C682        N684   1.157       .  T
C685        C686   1.403       .  A
C685        C690   1.419       .  A
C686        C687   1.397       .  A
C686        H691   1.085       .  S
C687        C688   1.414       .  A
C687        C694   1.445       .  S
C688        C689   1.402       .  A
C689        C690   1.405       .  A
C689        H692   1.085       .  S
C690        C693   1.444       .  S
C693        N695   1.157       .  T
C694        N696   1.157       .  T
C697        C698   1.405       .  A
C697        C702   1.411       .  A
C698        C699   1.406       .  A
C698        H703   1.084       .  S
C699        C700   1.410       .  A
C699        C706   1.444       .  S
C700        C701   1.400       .  A
C701        C702   1.399       .  A
C701        H704   1.084       .  S
C702        C705   1.444       .  S
C705        N707   1.157       .  T
C706        N708   1.157       .  T
C709        C710   1.408       .  A
C709        C714   1.413       .  A
C710        C711   1.410       .  A
C710        H715   1.085       .  S
C711        C712   1.417       .  A
C711        C718   1.442       .  S
C712        C713   1.407       .  A
C713        C714   1.393       .  A
C713        H716   1.083       .  S
C714        C717   1.446       .  S
C717        N719   1.157       .  T
C718        N720   1.157       .  T
C721        C722   1.411       .  A
C721        C726   1.418       .  A
C722        C723   1.410       .  A
C722        H727   1.085       .  S
C723        C724   1.414       .  A
C723        C730   1.442       .  S
C724        C725   1.405       .  A
C725        C726   1.395       .  A
C725        H728   1.084       .  S
C726        C729   1.446       .  S
C729        N731   1.157       .  T
C730        N732   1.157       .  T
C733        C734   1.405       .  A
C733        C738   1.408       .  A
C734        C735   1.408       .  A
C734        H739   1.085       .  S
C735        C736   1.411       .  A
C735        C742   1.443       .  S
C736        C737   1.402       .  A
C737        C738   1.395       .  A
C737        H740   1.086       .  S
C738        C741   1.442       .  S
C741        N743   1.156   1_556  T
C742        N744   1.157       .  T
C745        C746   1.406       .  A
C745        C750   1.409       .  A
C746        C747   1.410       .  A
C746        H751   1.085       .  S
C747        C748   1.414       .  A
C747        C754   1.442       .  S
C748        C749   1.403       .  A
C749        C750   1.393       .  A
C749        H752   1.086       .  S
C750        C753   1.443       .  S
C753        N755   1.156       .  T
C754        N756   1.157       .  T
C757        C758   1.403       .  A
C757        C762   1.420       .  A
C758        C759   1.395       .  A
C758        H763   1.083       .  S
C759        C760   1.415       .  A
C759        C766   1.445       .  S
C760        C761   1.405       .  A
C761        C762   1.409       .  A
C761        H764   1.084       .  S
C762        C765   1.444       .  S
C765        N767   1.157       .  T
C766        N768   1.157       .  T
C769        C770   1.406       .  A
C769        C774   1.411       .  A
C770        C771   1.405       .  A
C770        H775   1.085       .  S
C771        C772   1.413       .  A
C771        C778   1.443       .  S
C772        C773   1.405       .  A
C773        C774   1.393       .  A
C773        H776   1.085       .  S
C774        C777   1.446       .  S
C777        N779   1.157       .  T
C778        N780   1.157       .  T
C781        C782   1.402       .  A
C781        C786   1.417       .  A
C782        C783   1.395       .  A
C782        H787   1.085       .  S
C783        C784   1.412       .  A
C783        C790   1.445       .  S
C784        C785   1.402       .  A
C785        C786   1.403       .  A
C785        H788   1.085       .  S
C786        C789   1.444       .  S
C789        N791   1.157       .  T
C790        N792   1.157       .  T
C793        C794   1.401       .  A
C793        C798   1.414       .  A
C794        C795   1.393       .  A
C794        H799   1.085       .  S
C795        C796   1.415       .  A
C795        C802   1.445       .  S
C796        C797   1.405       .  A
C797        C798   1.404       .  A
C797        H800   1.084       .  S
C798        C801   1.444       .  S
C801        N803   1.157       .  T
C802        N804   1.157       .  T
C805        C806   1.400       .  A
C805        C810   1.412       .  A
C806        C807   1.392       .  A
C806        H811   1.085       .  S
C807        C808   1.414       .  A
C807        C814   1.445       .  S
C808        C809   1.406       .  A
C809        C810   1.406       .  A
C809        H812   1.084       .  S
C810        C813   1.443       .  S
C813        N815   1.157       .  T
C814        N816   1.157       .  T
