geometry optimzed in LAMMPS
_audit_creation_date              2020-11-30 
_audit_creation_method            'lammps2cif' 
_symmetry_space_group_name_H-M    'P1' 
_symmetry_Int_Tables_number       1 
_symmetry_cell_setting            triclinic 
loop_ 
_symmetry_equiv_pos_as_xyz 
  x,y,z 
_cell_length_a                    41.47840563 
_cell_length_b                    41.65014675479991 
_cell_length_c                    38.94793329929191 
_cell_angle_alpha                 92.0782294681713 
_cell_angle_beta                  88.24191829405628 
_cell_angle_gamma                 116.96477012563871 
loop_ 
_atom_site_label 
_atom_site_type_symbol 
_atom_site_fract_x 
_atom_site_fract_y 
_atom_site_fract_z 
_atom_site_charge 
O1          O  0.35951362  0.10319981  0.02276880    -0.78300
O2          O  0.35893733  0.24273291  0.97090780    -0.63000
O3          O  0.35015381  0.16564198  0.02763597    -1.09600
C4          C  0.24010533  0.10022299  0.96679762     1.08600
O5          O  0.30250703  0.22985889  0.98449950    -0.76200
O6          O  0.25528096  0.17232265  0.01788434    -0.63800
Ni7        Ni  0.38916560  0.15383931  0.03277110     1.34900
C8          C  0.25784913  0.15496399  0.04280878     0.87300
O9          O  0.40038759  0.23889653  0.02184244    -0.76800
O10         O  0.42184876  0.20316650  0.04390791    -0.87000
C11         C  0.33241079  0.25025578  0.97039672     0.86900
O12         O  0.40652275  0.16017370  0.98652815    -0.65200
O13         O  0.24271841  0.13109234  0.96040027    -0.84500
C14         C  0.40374494  0.17766660  0.96175087     0.87700
C15         C  0.42390185  0.23409927  0.03864580     1.09300
H16         H  0.31949301  0.16298878  0.95518055     0.41100
O17         O  0.31343844  0.16879175  0.97794904    -1.07200
O18         O  0.27781689  0.13911566  0.04183559    -0.63800
Ni19       Ni  0.30671538  0.12996208  0.00661525     1.26300
O20         O  0.38517270  0.19506841  0.96344597    -0.64100
O21         O  0.26324705  0.09530685  0.98395433    -0.76400
C22         C  0.32926590  0.08433082  0.03752400     0.87100
O23         O  0.30367566  0.09282876  0.03583258    -0.63500
Ni24       Ni  0.27427750  0.18004349  0.97245033     1.27400
Ni25       Ni  0.35675966  0.20461903  0.99911042     1.26100
H26         H  0.34416722  0.17134777  0.05046988     0.41600
O27         O  0.27211560  0.20037650  0.46011856    -0.78300
O28         O  0.41037828  0.19956533  0.52830051    -0.63000
O29         O  0.33455049  0.18969384  0.46839935    -1.09600
C30         C  0.26409311  0.08949051  0.53884928     1.08600
O31         O  0.39470320  0.14137836  0.52325960    -0.76200
O32         O  0.33453995  0.09199728  0.49126197    -0.63800
Ni33       Ni  0.32399873  0.22973225  0.46445657     1.34900
C34         C  0.32153329  0.09597244  0.46356260     0.87300
O35         O  0.40780698  0.23480758  0.47134007    -0.76800
O36         O  0.37453737  0.26422002  0.46565894    -0.87000
C37         C  0.41624497  0.17286244  0.53429289     0.86900
O38         O  0.31853482  0.23522180  0.51279162    -0.65200
O39         O  0.29340042  0.08982764  0.54857942    -0.84500
C40         C  0.34164993  0.23911115  0.53529208     0.87700
C41         C  0.40391139  0.26171941  0.46149291     1.09300
H42         H  0.33062154  0.16640280  0.54399629     0.41100
O43         O  0.33608741  0.15717984  0.52268211    -1.07200
O44         O  0.30875782  0.11819487  0.46062585    -0.63800
Ni45       Ni  0.29862739  0.14940688  0.49173786     1.26300
O46         O  0.36656114  0.22954087  0.52998870    -0.64100
O47         O  0.26283001  0.10997124  0.51614913    -0.76400
C48         C  0.25237643  0.16689119  0.45401589     0.87100
O49         O  0.26225123  0.14330064  0.46064961    -0.63500
Ni50       Ni  0.34363946  0.11691938  0.53486473     1.27400
Ni51       Ni  0.37302060  0.19610574  0.49805612     1.26100
H52         H  0.33936929  0.18264177  0.44565710     0.41600
O53         O  0.40229696  0.03559392  0.71405949    -0.71900
O54         O  0.35668621  0.47011370  0.79352631    -0.71900
O55         O  0.40406494  0.04155081  0.78388205    -0.71900
O56         O  0.35389150  0.46198860  0.72299026    -0.72000
O57         O  0.40096721  0.44983789  0.72403276    -0.71900
O58         O  0.44794031  0.02457794  0.78360831    -0.71900
O59         O  0.40472343  0.45938933  0.79256923    -0.71900
O60         O  0.44584998  0.01817822  0.71396549    -0.71900
Ni61       Ni  0.37633367  0.00393062  0.75100548     1.25400
Ni62       Ni  0.42357658  0.98613157  0.75104982     1.25400
C63         C  0.43213614  0.03734530  0.70187769     0.90300
C64         C  0.37420475  0.45444539  0.80560729     0.90200
C65         C  0.43463541  0.04543890  0.79458887     0.90300
C66         C  0.36956155  0.44273507  0.71309443     0.90400
O67         O  0.09515447  0.06114850  0.70585387    -0.71900
O68         O  0.05518698  0.09413991  0.78146227    -0.71900
O69         O  0.05864533  0.10071604  0.71334210    -0.71900
O70         O  0.09128757  0.05300595  0.77384801    -0.72000
O71         O  0.14362743  0.10277141  0.78047084    -0.71900
O72         O  0.11119359  0.15061005  0.71709780    -0.71900
O73         O  0.10772194  0.14385313  0.78657651    -0.71900
O74         O  0.14789887  0.11044462  0.71177102    -0.71900
Ni75       Ni  0.07324344  0.07555071  0.74355855     1.25400
Ni76       Ni  0.12951176  0.12882308  0.74922409     1.25400
C77         C  0.12838722  0.08006114  0.69692925     0.90300
C78         C  0.07468555  0.12495304  0.79582380     0.90200
C79         C  0.07915874  0.13321928  0.70514919     0.90300
C80         C  0.12297804  0.06940794  0.78621657     0.90400
O81         O  0.03476865  0.44497797  0.79430591    -0.71900
O82         O  0.47226899  0.41535990  0.71966018    -0.71900
O83         O  0.47641816  0.41192934  0.78900051    -0.71900
O84         O  0.04280555  0.46029566  0.72771136    -0.72000
O85         O  0.04180886  0.40751557  0.71309229    -0.71900
O86         O  0.47268962  0.35692904  0.78258243    -0.71900
O87         O  0.46849010  0.36031913  0.71316049    -0.71900
O88         O  0.03735849  0.39365724  0.78101142    -0.71900
Ni89       Ni  0.00235353  0.43844059  0.75817047     1.25400
Ni90       Ni  0.00263640  0.38208912  0.74508055     1.25400
C91         C  0.04753466  0.42274003  0.79924840     0.90300
C92         C  0.45796272  0.38390815  0.70572945     0.90200
C93         C  0.46362830  0.37908989  0.79842042     0.90300
C94         C  0.05606497  0.44192330  0.71109853     0.90400
C95         C  0.01277955  0.16889249  0.59248221     0.04800
C96         C  0.47816758  0.15015521  0.58842338     0.04800
C97         C  0.45729885  0.12737652  0.61488128    -0.15700
C98         C  0.47326656  0.11851118  0.64195244     0.04800
C99         C  0.01013205  0.14165504  0.64801003     0.04800
C100        C  0.02965114  0.16581222  0.62191062    -0.15700
H101        H  0.05855404  0.18211014  0.62355377     0.06900
H102        H  0.42802533  0.11483792  0.61343247     0.06900
C103        C  0.18928441  0.01608552  0.59211682     0.04800
C104        C  0.16987736  0.48216009  0.59291014     0.04800
C105        C  0.13895738  0.46230764  0.61309269    -0.15700
C106        C  0.12571479  0.47933779  0.63730634     0.04800
C107        C  0.14296456  0.01533392  0.63301816     0.04800
C108        C  0.17493797  0.03428174  0.61377221    -0.15700
H109        H  0.18842479  0.06345928  0.61493336     0.06900
H110        H  0.12457141  0.43328494  0.60943395     0.06900
C111        C  0.34090833  0.35282179  0.92154869     0.04800
C112        C  0.36715272  0.33947032  0.92256217     0.04800
C113        C  0.39598550  0.35151950  0.89858405    -0.15700
C114        C  0.39825436  0.37440393  0.87226297     0.04800
C115        C  0.37096970  0.38540042  0.86924352     0.04800
C116        C  0.34357510  0.37589388  0.89452912    -0.15700
H117        H  0.32435441  0.38656001  0.89273054     0.06900
H118        H  0.41657826  0.34237024  0.89992131     0.06900
C119        C  0.33276150  0.30386884  0.60419150     0.04800
C120        C  0.31117988  0.32190267  0.61013949     0.04800
C121        C  0.32011467  0.34813241  0.63697752    -0.15700
C122        C  0.34989504  0.35651089  0.65842408     0.04800
C123        C  0.37080772  0.33749196  0.65285227     0.04800
C124        C  0.36205521  0.31182869  0.62601167    -0.15700
H125        H  0.37975673  0.29940909  0.62149827     0.06900
H126        H  0.30283730  0.36101970  0.64185039     0.06900
C127        C  0.15904322  0.47737275  0.90790694     0.04800
C128        C  0.17875432  0.02194956  0.91057601     0.04800
C129        C  0.17449685  0.04355939  0.88594641    -0.15700
C130        C  0.14682954  0.02927265  0.86195068     0.04800
C131        C  0.12163570  0.47969357  0.86196121     0.04800
C132        C  0.12883105  0.46053105  0.88678503    -0.15700
H133        H  0.10964180  0.43261923  0.89091484     0.06900
H134        H  0.19255965  0.07225162  0.88595907     0.06900
C135        C  0.47512371  0.17194380  0.89996644     0.04800
C136        C  0.01094614  0.19075117  0.89621592     0.04800
C137        C  0.02755450  0.17786194  0.87093051    -0.15700
C138        C  0.00719242  0.14937349  0.84796855     0.04800
C139        C  0.47320778  0.13303334  0.85048686     0.04800
C140        C  0.45558616  0.14460580  0.87573128    -0.15700
H141        H  0.42631341  0.13067627  0.87767429     0.06900
H142        H  0.05673770  0.19121354  0.86845337     0.06900
O143        O  0.11222351  0.37079002  0.48094774    -0.78300
O144        O  0.23284661  0.35402517  0.54570230    -0.63000
O145        O  0.16403539  0.34678192  0.48024469    -1.09600
C146        C  0.08162546  0.25032657  0.54549100     1.08600
O147        O  0.21365862  0.29496034  0.55112659    -0.76200
O148        O  0.16420076  0.25789215  0.49973844    -0.63800
Ni149      Ni  0.16186226  0.38952815  0.46695356     1.34900
C150        C  0.14354952  0.25605072  0.47540688     0.87300
O151        O  0.23869098  0.38839677  0.48708812    -0.76800
O152        O  0.21159190  0.41098293  0.45269031    -0.87000
C153        C  0.23681212  0.32780682  0.55666789     0.86900
O154        O  0.17381075  0.41673872  0.50893431    -0.65200
O155        O  0.10849332  0.24321662  0.54721179    -0.84500
C156        C  0.18344249  0.41113171  0.53768914     0.87700
C157        C  0.23956234  0.40931916  0.46337545     1.09300
H158        H  0.15444149  0.32472525  0.55822233     0.41100
O159        O  0.15879949  0.31501784  0.53666038    -1.07200
O160        O  0.12465278  0.27323603  0.47641969    -0.63800
Ni161      Ni  0.12325861  0.31200579  0.50491409     1.26300
O162        O  0.19285352  0.38658644  0.54210112    -0.64100
O163        O  0.08392855  0.27853295  0.53183090    -0.76400
C164        C  0.08837298  0.34190025  0.46785740     0.87100
O165        O  0.08932108  0.31237522  0.47260161    -0.63500
Ni166      Ni  0.16100729  0.27147003  0.54680179     1.27400
Ni167      Ni  0.19916390  0.35160113  0.51267809     1.26100
H168        H  0.16822030  0.33555735  0.45955918     0.41600
O169        O  0.20122178  0.27083939  0.03324895    -0.78300
O170        O  0.20560549  0.40370542  0.96031954    -0.63000
O171        O  0.18782561  0.33046701  0.02475786    -1.09600
C172        C  0.09158357  0.25965038  0.94912633     1.08600
O173        O  0.14779340  0.39061338  0.96461283    -0.76200
O174        O  0.09648552  0.33384341  0.99711282    -0.63800
Ni175      Ni  0.22587621  0.32226981  0.04226072     1.34900
C176        C  0.09663705  0.31744391  0.02382923     0.87300
O177        O  0.23560368  0.40460178  0.02068019    -0.76800
O178        O  0.25162457  0.37226772  0.05534449    -0.87000
C179        C  0.18000435  0.41147935  0.95492418     0.86900
O180        O  0.25455033  0.32959418  0.00068130    -0.65200
O181        O  0.09194038  0.28944310  0.94158364    -0.84500
C182        C  0.25512843  0.34475775  0.97269575     0.87700
C183        C  0.25310127  0.40188947  0.04582822     1.09300
H184        H  0.17073480  0.32526043  0.94616024     0.41100
O185        O  0.16062173  0.33061372  0.96697592    -1.07200
O186        O  0.11555272  0.30082765  0.02624552    -0.63800
Ni187      Ni  0.15057992  0.29318842  0.99821228     1.26300
O188        O  0.23423516  0.35883730  0.96702211    -0.64100
O189        O  0.11335063  0.25726330  0.97021506    -0.76400
C190        C  0.16812781  0.25091510  0.04117763     0.87100
O191        O  0.14325486  0.25726492  0.03026616    -0.63500
Ni192      Ni  0.12135978  0.33964400  0.95388933     1.27400
Ni193      Ni  0.19859532  0.36783377  0.99295490     1.26100
H194        H  0.17688276  0.33627732  0.04471553     0.41600
O195        O  0.45717495  0.12227392  0.21803133    -0.71900
O196        O  0.02961676  0.14481003  0.28457141    -0.71900
O197        O  0.02994439  0.13154632  0.21563554    -0.71900
O198        O  0.45294618  0.12165476  0.28845626    -0.72000
O199        O  0.45259807  0.06791775  0.28678416    -0.71900
O200        O  0.02816044  0.07824673  0.22508407    -0.71900
O201        O  0.02799847  0.09161496  0.29428218    -0.71900
O202        O  0.45698132  0.06860420  0.21787206    -0.71900
Ni203      Ni  0.49175230  0.14039864  0.25456111     1.25400
Ni204      Ni  0.49136045  0.08286263  0.25387014     1.25400
C205        C  0.44573202  0.08996968  0.20606125     0.90300
C206        C  0.04039298  0.12549086  0.30095133     0.90200
C207        C  0.04078075  0.10759016  0.20860236     0.90300
C208        C  0.43993740  0.08908100  0.29855516     0.90400
O209        O  0.43247096  0.46326862  0.28553658    -0.71900
O210        O  0.45846817  0.41187346  0.21614058    -0.71900
O211        O  0.43578130  0.46282597  0.21594344    -0.71900
O212        O  0.45546355  0.41250443  0.28549453    -0.72000
O213        O  0.39883058  0.36857945  0.28318299    -0.71900
O214        O  0.37834744  0.42042650  0.21455045    -0.71900
O215        O  0.40128881  0.36920200  0.21335367    -0.71900
O216        O  0.37546876  0.41992731  0.28428886    -0.71900
Ni217      Ni  0.44753468  0.43911140  0.25085938     1.25400
Ni218      Ni  0.38636689  0.39297226  0.24886309     1.25400
C219        C  0.39969400  0.44993251  0.29646677     0.90300
C220        C  0.43425644  0.38246730  0.20293353     0.90200
C221        C  0.40402354  0.44984008  0.20357814     0.90300
C222        C  0.43066109  0.38226335  0.29568212     0.90400
C223        C  0.31150409  0.48413108  0.40852412     0.04800
C224        C  0.32484928  0.02120783  0.40498488     0.04800
C225        C  0.35128463  0.03954482  0.37958565    -0.15700
C226        C  0.36036805  0.02067862  0.35339740     0.04800
C227        C  0.34618309  0.48379814  0.35687608     0.04800
C228        C  0.32118743  0.46549904  0.38293507    -0.15700
H229        H  0.30872014  0.43630226  0.38288265     0.06900
H230        H  0.36531096  0.06859686  0.38101962     0.06900
O231        O  0.09118246  0.45230794  0.27811648    -0.71900
O232        O  0.13024464  0.03780596  0.21993315    -0.71900
O233        O  0.13777818  0.03182818  0.28765530    -0.71900
O234        O  0.09588259  0.45642403  0.20855405    -0.72000
O235        O  0.04800360  0.46734878  0.20813983    -0.71900
O236        O  0.08330209  0.02791490  0.29985716    -0.71900
O237        O  0.07839958  0.03948773  0.23385474    -0.71900
O238        O  0.04208346  0.46123071  0.27665324    -0.71900
Ni239      Ni  0.11703132  0.49049803  0.24665411     1.25400
Ni240      Ni  0.06486661  0.50072765  0.24623471     1.25400
C241        C  0.05813277  0.44324271  0.28644903     0.90300
C242        C  0.10936254  0.05283809  0.21874808     0.90200
C243        C  0.11723165  0.04168950  0.30574536     0.90300
C244        C  0.06531008  0.45057091  0.19602323     0.90400
C245        C  0.35086678  0.02049682  0.08799903     0.04800
C246        C  0.32999727  0.48492047  0.08559772     0.04800
C247        C  0.33661809  0.46608443  0.11159440    -0.15700
C248        C  0.35899300  0.48386779  0.13912888     0.04800
C249        C  0.37432373  0.02228316  0.14554109     0.04800
C250        C  0.36889075  0.03988411  0.11770016    -0.15700
H251        H  0.37868975  0.06881077  0.11882015     0.06900
H252        H  0.32459737  0.43690002  0.11021581     0.06900
C253        C  0.16790038  0.16205401  0.41089165     0.04800
C254        C  0.14542902  0.17943234  0.41564867     0.04800
C255        C  0.11356982  0.16655545  0.39629386    -0.15700
C256        C  0.10322616  0.13630104  0.37404338     0.04800
C257        C  0.12464949  0.11785643  0.37060267     0.04800
C258        C  0.15730878  0.13172741  0.38829966    -0.15700
H259        H  0.17453963  0.11866451  0.38465620     0.06900
H260        H  0.09552606  0.17877753  0.39942694     0.06900
C261        C  0.18346459  0.15920429  0.10212665     0.04800
C262        C  0.16849989  0.18351577  0.10555225     0.04800
C263        C  0.14132655  0.17790589  0.13044593    -0.15700
C264        C  0.12744810  0.14761414  0.15136533     0.04800
C265        C  0.14261976  0.12289637  0.14784612     0.04800
C266        C  0.17024282  0.12917857  0.12322344    -0.15700
H267        H  0.18079849  0.10974354  0.11983729     0.06900
H268        H  0.13025337  0.19700716  0.13296457     0.06900
C269        C  0.48143613  0.31504698  0.39884673     0.04800
C270        C  0.02000864  0.32855152  0.39916269     0.04800
C271        C  0.03974689  0.35759322  0.37749783    -0.15700
C272        C  0.02247074  0.37195174  0.35705332     0.04800
C273        C  0.48678236  0.35889065  0.35598214     0.04800
C274        C  0.46577464  0.33169151  0.37894838    -0.15700
H275        H  0.43728478  0.32444311  0.38222050     0.06900
H276        H  0.06907292  0.36989633  0.37743410     0.06900
C277        C  0.02682197  0.32895298  0.08370658     0.04800
C278        C  0.48439334  0.32473072  0.08361901     0.04800
C279        C  0.47105199  0.33840164  0.11099259    -0.15700
C280        C  0.49406229  0.36186132  0.13645038     0.04800
C281        C  0.03194971  0.36598020  0.13570408     0.04800
C282        C  0.04786801  0.35610916  0.10765306    -0.15700
H283        H  0.07689148  0.37080718  0.10363260     0.06900
H284        H  0.44228643  0.32995087  0.11233468     0.06900
C285        C  0.04595977  0.40419634  0.33643847    -0.13900
C286        C  0.03690134  0.41007428  0.30532177    -0.29000
H287        H  0.07172206  0.42343595  0.34706594     0.15200
H288        H  0.01225493  0.39054776  0.29330446     0.15700
C289        C  0.04803180  0.42373825  0.16782230    -0.13900
C290        C  0.05590493  0.39643891  0.15906651    -0.29000
H291        H  0.02481984  0.42423498  0.15609307     0.15200
H292        H  0.07957272  0.39583097  0.16956288     0.15700
C293        C  0.13298739  0.07117730  0.33222283    -0.13900
C294        C  0.11190321  0.08401399  0.34870670    -0.29000
H295        H  0.16210174  0.08455575  0.33521917     0.15200
H296        H  0.08313268  0.06962443  0.34412583     0.15700
C297        C  0.12157476  0.08690311  0.20100777    -0.13900
C298        C  0.13072155  0.08941872  0.16764279    -0.29000
H299        H  0.12186936  0.10972527  0.21555302     0.15200
H300        H  0.13115193  0.06614465  0.15443025     0.15700
C301        C  0.43966901  0.36233446  0.32109016    -0.13900
C302        C  0.47023213  0.37893143  0.33915939    -0.29000
H303        H  0.42323424  0.33335456  0.32233296     0.15200
H304        H  0.48621404  0.40796274  0.33765270     0.15700
C305        C  0.47952875  0.37501269  0.16644030    -0.13900
C306        C  0.44443955  0.36417442  0.17459780    -0.29000
H307        H  0.49882271  0.39485448  0.18365951     0.15200
H308        H  0.42293168  0.34260414  0.16050173     0.15700
C309        C  0.39015130  0.47013199  0.32317518    -0.13900
C310        C  0.35568942  0.46156376  0.33191370    -0.29000
H311        H  0.41201117  0.49379717  0.33481251     0.15200
H312        H  0.33386678  0.43699907  0.32157344     0.15700
C313        C  0.36466078  0.46144109  0.16477409    -0.13900
C314        C  0.39773373  0.46970871  0.17633664    -0.29000
H315        H  0.34140121  0.43725057  0.17335632     0.15200
H316        H  0.42115847  0.49278727  0.16619293     0.15700
C317        C  0.41039738  0.07544555  0.32471499    -0.13900
C318        C  0.38743494  0.03989983  0.32548164    -0.29000
H319        H  0.40903867  0.09444082  0.34371010     0.15200
H320        H  0.38930422  0.02364342  0.30387743     0.15700
C321        C  0.39409965  0.04253078  0.17684893    -0.13900
C322        C  0.41997643  0.07691247  0.17749385    -0.29000
H323        H  0.38994495  0.02741858  0.20009695     0.15200
H324        H  0.42489427  0.09432070  0.15588697     0.15700
C325        C  0.06988030  0.12391629  0.35387287    -0.13900
C326        C  0.06820308  0.14267539  0.32733930    -0.29000
H327        H  0.04871202  0.09664301  0.35745758     0.15200
H328        H  0.08882602  0.17021465  0.32380034     0.15700
C329        C  0.09751691  0.14385291  0.17594347    -0.13900
C330        C  0.06772690  0.11254304  0.18087971    -0.29000
H331        H  0.09996366  0.16786617  0.18998564     0.15200
H332        H  0.06481511  0.08858221  0.16650328     0.15700
C333        C  0.15737717  0.21974413  0.06345637    -0.13900
C334        C  0.18088428  0.21478976  0.08271073    -0.29000
H335        H  0.12870603  0.20127368  0.06568714     0.15200
H336        H  0.20971453  0.23244418  0.08019828     0.15700
C337        C  0.07535614  0.31888882  0.05442308    -0.13900
C338        C  0.04486579  0.32249668  0.05250186    -0.29000
H339        H  0.08530504  0.31726718  0.07947276     0.15200
H340        H  0.03310272  0.32116050  0.02762006     0.15700
C341        C  0.27385778  0.43334861  0.06813277    -0.13900
C342        C  0.30356009  0.46317690  0.05858497    -0.32000
H343        H  0.26795567  0.42854045  0.09538989     0.15200
H344        H  0.31025546  0.46908737  0.03162738     0.15700
C345        C  0.15331260  0.20797898  0.44347456    -0.13900
C346        C  0.13969763  0.23199880  0.44491071    -0.29000
H347        H  0.16978015  0.20811566  0.46467101     0.15200
H348        H  0.12358327  0.23305322  0.42398354     0.15700
C349        C  0.06134853  0.34471598  0.44648958    -0.13900
C350        C  0.03994959  0.31901357  0.42441723    -0.29000
H351        H  0.06180683  0.37104524  0.44624400     0.15200
H352        H  0.03807792  0.29213792  0.42403442     0.15700
C353        C  0.27456231  0.43222047  0.44629607    -0.13900
C354        C  0.28061267  0.46363525  0.43227109    -0.29000
H355        H  0.29492506  0.42262846  0.44405093     0.15200
H356        H  0.26116912  0.47414932  0.43705563     0.15700
C357        C  0.06553077  0.22611312  0.93153471    -0.13900
C358        C  0.03426124  0.22238608  0.91837143    -0.29000
H359        H  0.07252149  0.20394912  0.92891688     0.15200
H360        H  0.02583309  0.24333025  0.92333079     0.15700
C361        C  0.16124538  0.45572921  0.93603147    -0.13900
C362        C  0.18708703  0.44479687  0.93696109    -0.29000
H363        H  0.13663089  0.44182558  0.95128348     0.15200
H364        H  0.21138390  0.45758839  0.92108771     0.15700
C365        C  0.26997567  0.33678606  0.57644751    -0.13900
C366        C  0.27804339  0.31193125  0.58952339    -0.29000
H367        H  0.28829257  0.36515169  0.58085032     0.15200
H368        H  0.26074120  0.28354821  0.58400362     0.15700
C369        C  0.28119665  0.34693936  0.94474236    -0.13900
C370        C  0.31256941  0.34516875  0.94945818    -0.29000
H371        H  0.27472988  0.35220349  0.91946976     0.15200
H372        H  0.31827058  0.33919796  0.97482951     0.15700
C373        C  0.17967609  0.46382444  0.56415702    -0.13900
C374        C  0.18163223  0.43282288  0.56780313    -0.29000
H375        H  0.18403632  0.47567418  0.53897296     0.15200
H376        H  0.17956573  0.42210664  0.59324877     0.15700
C377        C  0.03697331  0.19025581  0.56436154    -0.13900
C378        C  0.04672012  0.22551458  0.56168575    -0.29000
H379        H  0.05345701  0.17915357  0.55150924     0.15200
H380        H  0.03087131  0.23711736  0.57491682     0.15700
C381        C  0.43757663  0.36579758  0.82756557    -0.13900
C382        C  0.42976747  0.38799450  0.84802559    -0.29000
H383        H  0.42326253  0.33690994  0.83133191     0.15200
H384        H  0.44325868  0.41676008  0.84346452     0.15700
C385        C  0.07592577  0.43206439  0.82506007    -0.13900
C386        C  0.08678500  0.46269992  0.84391854    -0.29000
H387        H  0.09064944  0.41618036  0.82580161     0.15200
H388        H  0.07230656  0.47876009  0.84232485     0.15700
C389        C  0.09290001  0.45585875  0.65770958    -0.13900
C390        C  0.08960724  0.46180013  0.69136681    -0.29000
H391        H  0.07354202  0.92913279  0.64249071     0.15200
H392        H  0.11130921  0.48407366  0.70470794     0.15700
C393        C  0.40226473  0.34326655  0.67435510    -0.13900
C394        C  0.42906162  0.37625909  0.68091471    -0.29000
H395        H  0.40355661  0.31985133  0.68431263     0.15200
H396        H  0.42800918  0.39937558  0.66991784     0.15700
C397        C  0.05902976  0.13929027  0.82334912    -0.13900
C398        C  0.02575498  0.13709153  0.82059555    -0.29000
H399        H  0.07555959  0.15243502  0.84549416     0.15200
H400        H  0.01115147  0.12492783  0.79714901     0.15700
C401        C  0.13544338  0.04825155  0.80616475    -0.13900
C402        C  0.14249870  0.05513034  0.83958579    -0.29000
H403        H  0.13363346  0.02351860  0.79427135     0.15200
H404        H  0.14462159  0.08016593  0.85113029     0.15700
C405        C  0.14546248  0.06595330  0.67069416    -0.13900
C406        C  0.12613458  0.03541675  0.65253163    -0.29000
H407        H  0.17480447  0.07898700  0.66899270     0.15200
H408        H  0.09682591  0.02269200  0.65493621     0.15700
C409        C  0.06522914  0.14961644  0.68054179    -0.13900
C410        C  0.02909840  0.13705857  0.67795561    -0.29000
H411        H  0.08449288  0.16876906  0.66299879     0.15200
H412        H  0.01241845  0.11992901  0.69828692     0.15700
C413        C  0.45568917  0.07417664  0.81984941    -0.13900
C414        C  0.44991248  0.10302461  0.82674016    -0.29000
H415        H  0.47797724  0.07231415  0.83203544     0.15200
H416        H  0.42668870  0.10419046  0.81580945     0.15700
C417        C  0.36044917  0.43054552  0.83538917    -0.13900
C418        C  0.37092847  0.40452801  0.83772859    -0.29000
H419        H  0.34607107  0.43677104  0.85622935     0.15200
H420        H  0.38387482  0.39906749  0.81511944     0.15700
C421        C  0.44868353  0.09164549  0.66700438    -0.13900
C422        C  0.45205533  0.06186977  0.67380406    -0.29000
H423        H  0.42734530  0.09628319  0.67951847     0.15200
H424        H  0.47288381  0.05712293  0.66028922     0.15700
C425        C  0.35200113  0.41266688  0.68769198    -0.13900
C426        C  0.35875996  0.38386906  0.68731282    -0.29000
H427        H  0.33572567  0.41571114  0.66800989     0.15200
H428        H  0.37395081  0.38177611  0.70857300     0.15700
C429        C  0.44744238  0.17811968  0.55573116    -0.13900
C430        C  0.45831915  0.15233598  0.55819996    -0.29000
H431        H  0.45894311  0.20181016  0.57264400     0.15200
H432        H  0.44604958  0.12825730  0.54187260     0.15700
C433        C  0.32189918  0.07444363  0.43282933    -0.13900
C434        C  0.32015996  0.04160569  0.43517992    -0.29000
H435        H  0.32319292  0.08564760  0.40776990     0.15200
H436        H  0.31570730  0.02939262  0.46019422     0.15700
C437        C  0.22932352  0.06568865  0.55536376    -0.13900
C438        C  0.22399365  0.03692175  0.57345850    -0.29000
H439        H  0.20702186  0.07232053  0.55267251     0.15200
H440        H  0.24494335  0.02813975  0.57425523     0.15700
C441        C  0.43338860  0.29168799  0.44351198    -0.13900
C442        C  0.45903478  0.28780941  0.42452493    -0.29000
H443        H  0.43069290  0.31634022  0.44169905     0.15200
H444        H  0.46248701  0.26359544  0.42644477     0.15700
C445        C  0.21637876  0.15402962  0.43899668    -0.13900
C446        C  0.20326656  0.17609071  0.42844894    -0.29000
H447        H  0.20027107  0.12503656  0.43618029     0.15200
H448        H  0.21878843  0.20500676  0.43260246     0.15700
C449        C  0.34115505  0.25656205  0.56875808    -0.13900
C450        C  0.32710402  0.27995986  0.57296079    -0.29000
H451        H  0.35525923  0.25184604  0.58941911     0.15200
H452        H  0.31299368  0.28356160  0.55153451     0.15700
C453        C  0.20657252  0.04029612  0.93728975    -0.13900
C454        C  0.20743293  0.06980399  0.95319940    -0.29000
H455        H  0.22880815  0.03353196  0.93938302     0.15200
H456        H  0.18464585  0.07556428  0.94969529     0.15700
C457        C  0.23535543  0.15207537  0.07390747    -0.13900
C458        C  0.20942747  0.16309352  0.07347017    -0.29000
H459        H  0.23911722  0.13970945  0.09650458     0.15200
H460        H  0.20663450  0.17551983  0.05045148     0.15700
C461        C  0.42326238  0.17740952  0.92945778    -0.13900
C462        C  0.45604467  0.17819102  0.93043664    -0.29000
H463        H  0.41073529  0.17621390  0.90505156     0.15200
H464        H  0.46919459  0.18244864  0.95508644     0.15700
C465        C  0.32425002  0.05333955  0.05822997    -0.13900
C466        C  0.34923566  0.04127851  0.05880020    -0.29000
H467        H  0.30150090  0.04280013  0.07625037     0.15200
H468        H  0.37241091  0.05194403  0.04131768     0.15700
C469        C  0.45547569  0.26515115  0.05402139    -0.13900
C470        C  0.45729620  0.29791837  0.05971604    -0.29000
H471        H  0.47629349  0.25958263  0.06467156     0.15200
H472        H  0.43492707  0.30269540  0.05194824     0.15700
C473        C  0.36542270  0.31139325  0.94626533    -0.13900
C474        C  0.33446204  0.28200361  0.95290777    -0.29000
H475        H  0.39069428  0.31222611  0.95422636     0.15200
H476        H  0.30913144  0.28010639  0.94390678     0.15700
O477        O  0.35871188  0.61128948  0.02990304    -0.78300
O478        O  0.34565749  0.74172414  0.96831236    -0.63000
O479        O  0.34004024  0.66847475  0.02845940    -1.09600
C480        C  0.23697833  0.59447307  0.96198894     1.08600
O481        O  0.28732467  0.72484096  0.97640876    -0.76200
O482        O  0.24501678  0.66817730  0.01299015    -0.63800
Ni483      Ni  0.38211071  0.66298363  0.03887736     1.34900
C484        C  0.24743092  0.65077110  0.03793094     0.87300
O485        O  0.38371409  0.74323398  0.02361571    -0.76800
O486        O  0.40944189  0.71381195  0.05018225    -0.87000
C487        C  0.31801140  0.74700510  0.96502201     0.86900
O488        O  0.40293797  0.66972815  0.99380571    -0.65200
O489        O  0.23530624  0.62373093  0.95726737    -0.84500
C490        C  0.39927065  0.68450361  0.96726205     0.87700
C491        C  0.40743030  0.74261324  0.04332671     1.09300
H492        H  0.31368642  0.66298215  0.95280670     0.41100
O493        O  0.30536118  0.66744336  0.97506346    -1.07200
O494        O  0.26701533  0.63449752  0.03691733    -0.63800
Ni495      Ni  0.30100358  0.62988927  0.00445924     1.26300
O496        O  0.37820509  0.69920644  0.96625806    -0.64100
O497        O  0.26196693  0.59244817  0.97879004    -0.76400
C498        C  0.32693473  0.58840604  0.03895433     0.87100
O499        O  0.29980649  0.59396723  0.03428908    -0.63500
Ni500      Ni  0.26341891  0.67393056  0.96729840     1.27400
Ni501      Ni  0.34477623  0.70575838  0.99844770     1.26100
H502        H  0.33092295  0.67307857  0.05023844     0.41600
O503        O  0.27549258  0.70149539  0.45312170    -0.78300
O504        O  0.40977149  0.69789023  0.52848737    -0.63000
O505        O  0.33484069  0.68786590  0.46726827    -1.09600
C506        C  0.26209571  0.59278053  0.54229721     1.08600
O507        O  0.39256737  0.63933902  0.52558613    -0.76200
O508        O  0.33223190  0.59135555  0.49382591    -0.63800
Ni509      Ni  0.32719643  0.72928970  0.46064177     1.34900
C510        C  0.31839644  0.59429623  0.46623444     0.87300
O511        O  0.40886032  0.73086368  0.46986816    -0.76800
O512        O  0.37801692  0.76250534  0.46419080    -0.87000
C513        C  0.41511858  0.67103611  0.53509792     0.86900
O514        O  0.31998865  0.73555879  0.50859019    -0.65200
O515        O  0.29101774  0.59152035  0.55079646    -0.84500
C516        C  0.34329429  0.74071131  0.53141285     0.87700
C517        C  0.40674796  0.75879001  0.46047392     1.09300
H518        H  0.33075409  0.66804109  0.54449233     0.41100
O519        O  0.33525797  0.65756690  0.52349328    -1.07200
O520        O  0.30484441  0.61586121  0.46317307    -0.63800
Ni521      Ni  0.29763282  0.65009639  0.49269397     1.26300
O522        O  0.36765192  0.73010068  0.52745275    -0.64100
O523        O  0.26107752  0.61337805  0.51951341    -0.76400
C524        C  0.25404747  0.66793874  0.44974112     0.87100
O525        O  0.26101510  0.64391833  0.46145835    -0.63500
Ni526      Ni  0.34138266  0.61686979  0.53701796     1.27400
Ni527      Ni  0.37290536  0.69430742  0.49760751     1.26100
H528        H  0.33897699  0.67904811  0.44512679     0.41600
O529        O  0.39939295  0.53376336  0.71717189    -0.71900
O530        O  0.35372813  0.97134004  0.78836818    -0.71900
O531        O  0.40165861  0.54164433  0.78730421    -0.71900
O532        O  0.35211668  0.96502426  0.71776824    -0.72000
O533        O  0.39629193  0.94859245  0.71898063    -0.71900
O534        O  0.44904361  0.52986750  0.78649738    -0.71900
O535        O  0.39820074  0.95518816  0.78765246    -0.71900
O536        O  0.44584506  0.52052284  0.71689831    -0.71900
Ni537      Ni  0.37608025  0.50227171  0.75519358     1.25400
Ni538      Ni  0.42678199  0.48962196  0.75496438     1.25400
C539        C  0.42968161  0.53715884  0.70442241     0.90300
C540        C  0.36826328  0.95269422  0.80014461     0.90200
C541        C  0.43311978  0.54833956  0.79790500     0.90300
C542        C  0.36591730  0.94418629  0.70757607     0.90400
O543        O  0.10111763  0.56309958  0.72053722    -0.71900
O544        O  0.06209883  0.60181785  0.79175636    -0.71900
O545        O  0.06125942  0.59950668  0.72250560    -0.71900
O546        O  0.10225881  0.56514476  0.79001383    -0.72000
O547        O  0.15215681  0.61774537  0.79103809    -0.71900
O548        O  0.11247665  0.65079267  0.72000859    -0.71900
O549        O  0.11189507  0.65440954  0.78987537    -0.71900
O550        O  0.15261409  0.61424084  0.72102225    -0.71900
Ni551      Ni  0.07994534  0.58058278  0.75632865     1.25400
Ni552      Ni  0.13413603  0.63619753  0.75548435     1.25400
C553        C  0.13333227  0.58223169  0.70909778     0.90300
C554        C  0.08009512  0.63472657  0.80195387     0.90200
C555        C  0.08020009  0.63061132  0.70979963     0.90300
C556        C  0.13387734  0.58553550  0.80163145     0.90400
O557        O  0.03712595  0.95060715  0.78982252    -0.71900
O558        O  0.46798280  0.92589668  0.71824577    -0.71900
O559        O  0.46249170  0.91151792  0.78623262    -0.71900
O560        O  0.04215418  0.96093650  0.72227989    -0.72000
O561        O  0.04515262  0.90940974  0.71091431    -0.71900
O562        O  0.46378928  0.85916047  0.77545002    -0.71900
O563        O  0.46677272  0.87243111  0.70714412    -0.71900
O564        O  0.04341432  0.90066959  0.77980431    -0.71900
Ni565      Ni  0.00299309  0.93880074  0.75424445     1.25400
Ni566      Ni  0.00756236  0.88406905  0.74418680     1.25400
C567        C  0.05213383  0.93067391  0.79626715     0.90300
C568        C  0.45591623  0.89602119  0.70118103     0.90200
C569        C  0.45113463  0.87805673  0.79229655     0.90300
C570        C  0.05696632  0.94330033  0.70681441     0.90400
C571        C  0.01693093  0.66223299  0.59018756     0.04800
C572        C  0.47614955  0.64754228  0.58886621     0.04800
C573        C  0.45411175  0.62525913  0.61505224    -0.15700
C574        C  0.46887026  0.61641584  0.64300921     0.04800
C575        C  0.01144497  0.63297847  0.64552191     0.04800
C576        C  0.03249058  0.65469504  0.61842063    -0.15700
H577        H  0.06160110  0.66564415  0.61847961     0.06900
H578        H  0.42492913  0.61316107  0.61277061     0.06900
C579        C  0.18808619  0.51990680  0.59699454     0.04800
C580        C  0.17081015  0.97829400  0.58886053     0.04800
C581        C  0.13989883  0.95912473  0.60936016    -0.15700
C582        C  0.12617942  0.97701396  0.63203248     0.04800
C583        C  0.14335588  0.51763145  0.64074050     0.04800
C584        C  0.17453842  0.53731627  0.62058706    -0.15700
H585        H  0.18827778  0.56644294  0.62289186     0.06900
H586        H  0.12557668  0.93000020  0.60683984     0.06900
C587        C  0.32633143  0.84845193  0.91435906     0.04800
C588        C  0.35220982  0.83471569  0.91561046     0.04800
C589        C  0.38035238  0.84530207  0.89105225    -0.15700
C590        C  0.38227986  0.86730481  0.86415805     0.04800
C591        C  0.35538089  0.87870269  0.86093881     0.04800
C592        C  0.32840540  0.87028951  0.88644820    -0.15700
H593        H  0.30952877  0.88131786  0.88426003     0.06900
H594        H  0.40094226  0.83618881  0.89273447     0.06900
C595        C  0.33590703  0.81056229  0.59507549     0.04800
C596        C  0.31214709  0.82609950  0.60120272     0.04800
C597        C  0.31906635  0.85178576  0.62820983    -0.15700
C598        C  0.34903726  0.86200446  0.64960799     0.04800
C599        C  0.37334681  0.84698605  0.64289929     0.04800
C600        C  0.36644758  0.82167416  0.61591262    -0.15700
H601        H  0.38592209  0.81143223  0.61078230     0.06900
H602        H  0.29990500  0.86239986  0.63363790     0.06900
C603        C  0.15493061  0.98475964  0.91024143     0.04800
C604        C  0.18276769  0.51427816  0.90388324     0.04800
C605        C  0.17652318  0.53306034  0.87742125    -0.15700
C606        C  0.14593823  0.51627145  0.85654334     0.04800
C607        C  0.12310107  0.99176151  0.86154145     0.04800
C608        C  0.12770797  0.97010743  0.88564846    -0.15700
H609        H  0.10880204  0.94168161  0.88640431     0.06900
H610        H  0.19515089  0.56119788  0.87398356     0.06900
C611        C  0.46943691  0.67347820  0.90676622     0.04800
C612        C  0.01147971  0.68878320  0.90953309     0.04800
C613        C  0.02928318  0.67613492  0.88535849    -0.15700
C614        C  0.01010066  0.64609328  0.86361366     0.04800
C615        C  0.46629556  0.63477829  0.85639543     0.04800
C616        C  0.44924824  0.64603636  0.88262038    -0.15700
H617        H  0.42003970  0.63197366  0.88533354     0.06900
H618        H  0.05849758  0.68964328  0.88411019     0.06900
O619        O  0.10310699  0.86303597  0.47131364    -0.78300
O620        O  0.23077012  0.85156664  0.53547509    -0.63000
O621        O  0.15880772  0.84259167  0.47300657    -1.09600
C622        C  0.08040123  0.74264515  0.53659915     1.08600
O623        O  0.21204888  0.79349010  0.54612752    -0.76200
O624        O  0.16681882  0.75815048  0.49175502    -0.63800
Ni625      Ni  0.15439725  0.88476660  0.46113883     1.34900
C626        C  0.14603810  0.75553794  0.46729552     0.87300
O627        O  0.23333778  0.88419974  0.47759415    -0.76800
O628        O  0.20511241  0.91012358  0.44930335    -0.87000
C629        C  0.23526745  0.82660589  0.54853589     0.86900
O630        O  0.16272438  0.90829886  0.50508131    -0.65200
O631        O  0.10827226  0.73710909  0.53661085    -0.84500
C632        C  0.17732187  0.90499079  0.53193412     0.87700
C633        C  0.23344404  0.90736462  0.45698154     1.09300
H634        H  0.15190407  0.82088611  0.55093833     0.41100
O635        O  0.15615029  0.81111099  0.52936218    -1.07200
O636        O  0.12425943  0.76955297  0.46895620    -0.63800
Ni637      Ni  0.11966955  0.80633656  0.49785807     1.26300
O638        O  0.19055619  0.88309790  0.53404040    -0.64100
O639        O  0.08130269  0.77098965  0.52459197    -0.76400
C640        C  0.08016846  0.83197049  0.46096418     0.87100
O641        O  0.08479987  0.80440642  0.46572231    -0.63500
Ni642      Ni  0.16009682  0.76813808  0.53897386     1.27400
Ni643      Ni  0.19530977  0.84780486  0.50409939     1.26100
H644        H  0.16298560  0.83223829  0.45175186     0.41600
O645        O  0.20556507  0.78722329  0.05044193    -0.78300
O646        O  0.19946118  0.90953749  0.96080728    -0.63000
O647        O  0.18950609  0.84277254  0.02933818    -1.09600
C648        C  0.09107253  0.76301580  0.95950780     1.08600
O649        O  0.14109112  0.89441258  0.96423866    -0.76200
O650        O  0.09459779  0.83942606  0.00259778    -0.63800
Ni651      Ni  0.23179651  0.83883826  0.04281363     1.34900
C652        C  0.09701001  0.82537659  0.03010812     0.87300
O653        O  0.23107878  0.91646551  0.02039615    -0.76800
O654        O  0.26314050  0.89031295  0.04009547    -0.87000
C655        C  0.17329857  0.91620392  0.95533420     0.86900
O656        O  0.24564938  0.83107795  0.99722065    -0.65200
O657        O  0.08904349  0.79120178  0.95046640    -0.84500
C658        C  0.24776074  0.84908339  0.97080951     0.87700
C659        C  0.25859124  0.91811058  0.03505290     1.09300
H660        H  0.16850312  0.83110664  0.95103783     0.41100
O661        O  0.15853228  0.83703548  0.97162960    -1.07200
O662        O  0.11733264  0.81041283  0.03310214    -0.63800
Ni663      Ni  0.15219371  0.80273488  0.00522428     1.26300
O664        O  0.23207043  0.86918112  0.96890830    -0.64100
O665        O  0.11489304  0.76371530  0.97993022    -0.76400
C666        C  0.17200188  0.76517297  0.05336188     0.87100
O667        O  0.14743171  0.76970034  0.03921512    -0.63500
Ni668      Ni  0.11696310  0.84245270  0.95844443     1.27400
Ni669      Ni  0.19558306  0.87686508  0.99525349     1.26100
H670        H  0.17959085  0.84893234  0.04984860     0.41600
O671        O  0.46203218  0.61643690  0.21490451    -0.71900
O672        O  0.02642603  0.66159318  0.28882830    -0.71900
O673        O  0.02859467  0.66227062  0.21882378    -0.71900
O674        O  0.45436754  0.61811851  0.28542428    -0.72000
O675        O  0.44926492  0.56256407  0.28738429    -0.71900
O676        O  0.03502741  0.61197932  0.21974265    -0.71900
O677        O  0.02881001  0.60916093  0.28849414    -0.71900
O678        O  0.45495801  0.56023455  0.21837049    -0.71900
Ni679      Ni  0.49472169  0.63280141  0.25269811     1.25400
Ni680      Ni  0.48817949  0.57294089  0.25556093     1.25400
C681        C  0.44795945  0.58363253  0.20412611     0.90300
C682        C  0.03910321  0.64124420  0.30042968     0.90200
C683        C  0.04479731  0.64368124  0.20856153     0.90300
C684        C  0.43892306  0.58606070  0.29726694     0.90400
O685        O  0.42977407  0.95731932  0.28907252    -0.71900
O686        O  0.45612930  0.90729454  0.21836639    -0.71900
O687        O  0.43522903  0.95990091  0.21988642    -0.71900
O688        O  0.45128995  0.90540406  0.28722030    -0.72000
O689        O  0.39449210  0.86215792  0.28324481    -0.71900
O690        O  0.37739950  0.91866126  0.21690583    -0.71900
O691        O  0.39851791  0.86598503  0.21356257    -0.71900
O692        O  0.37246656  0.91483672  0.28607916    -0.71900
Ni693      Ni  0.44509700  0.93391564  0.25377869     1.25400
Ni694      Ni  0.38357691  0.88884754  0.24989648     1.25400
C695        C  0.39667650  0.94439948  0.29899817     0.90300
C696        C  0.43174570  0.87861884  0.20419419     0.90200
C697        C  0.40371707  0.94842988  0.20740000     0.90300
C698        C  0.42611901  0.87483768  0.29611786     0.90400
C699        C  0.30599195  0.98319522  0.40347142     0.04800
C700        C  0.32778716  0.52215000  0.40827616     0.04800
C701        C  0.35164189  0.54067202  0.38111026    -0.15700
C702        C  0.36058731  0.52188323  0.35475681     0.04800
C703        C  0.34292214  0.98237556  0.35373832     0.04800
C704        C  0.31527846  0.96435813  0.37773550    -0.15700
H705        H  0.30088492  0.93517159  0.37633434     0.06900
H706        H  0.36338195  0.56974650  0.38081809     0.06900
O707        O  0.10476147  0.95833492  0.27968709    -0.71900
O708        O  0.13941715  0.52921847  0.21489959    -0.71900
O709        O  0.13429337  0.52519146  0.28476574    -0.71900
O710        O  0.09633681  0.96412743  0.21143069    -0.72000
O711        O  0.04440933  0.96710022  0.22057099    -0.71900
O712        O  0.08530733  0.53420571  0.28420788    -0.71900
O713        O  0.09061460  0.53865944  0.21523163    -0.71900
O714        O  0.05004761  0.95555081  0.28740993    -0.71900
Ni715      Ni  0.11922883  0.99794002  0.24920972     1.25400
Ni716      Ni  0.06211556  0.99732103  0.26075823     1.25400
C717        C  0.07287697  0.94350466  0.29292064     0.90300
C718        C  0.12277697  0.54647232  0.20459822     0.90200
C719        C  0.11634435  0.54164917  0.29648544     0.90300
C720        C  0.06333005  0.95468481  0.20349193     0.90400
C721        C  0.34918686  0.52301495  0.08622157     0.04800
C722        C  0.33786953  0.98275616  0.08616146     0.04800
C723        C  0.34266095  0.96529008  0.11400347    -0.15700
C724        C  0.36076679  0.98432726  0.14328292     0.04800
C725        C  0.37515665  0.52188681  0.14167829     0.04800
C726        C  0.37110319  0.54103366  0.11450262    -0.15700
H727        H  0.38411742  0.57021792  0.11565982     0.06900
H728        H  0.33254897  0.93623714  0.11266168     0.06900
C729        C  0.17360952  0.66534403  0.39987709     0.04800
C730        C  0.15135074  0.68277388  0.40558867     0.04800
C731        C  0.11997442  0.67139970  0.38601730    -0.15700
C732        C  0.11047345  0.64363378  0.36114123     0.04800
C733        C  0.13224178  0.62567704  0.35531274     0.04800
C734        C  0.16376968  0.63692719  0.37491416    -0.15700
H735        H  0.18151206  0.62458406  0.36991504     0.06900
H736        H  0.10141646  0.68275296  0.39113165     0.06900
C737        C  0.17996514  0.66196176  0.10208652     0.04800
C738        C  0.16785514  0.68844771  0.10842049     0.04800
C739        C  0.14195782  0.68349371  0.13467239    -0.15700
C740        C  0.12753245  0.65238662  0.15444674     0.04800
C741        C  0.13964096  0.62594486  0.14795003     0.04800
C742        C  0.16571009  0.63100718  0.12216877    -0.15700
H743        H  0.17304972  0.60952105  0.11646388     0.06900
H744        H  0.13359559  0.70433248  0.14004419     0.06900
C745        C  0.48345759  0.81067253  0.39773258     0.04800
C746        C  0.01600281  0.82439359  0.39081507     0.04800
C747        C  0.03137270  0.84781932  0.36327654    -0.15700
C748        C  0.01133025  0.86182076  0.34612828     0.04800
C749        C  0.48403516  0.85075602  0.35330620     0.04800
C750        C  0.46542791  0.82499266  0.37798610    -0.15700
H751        H  0.43695624  0.81708993  0.38262099     0.06900
H752        H  0.05939646  0.85602563  0.35611896     0.06900
C753        C  0.02620275  0.83347620  0.09045613     0.04800
C754        C  0.48789983  0.81514406  0.09412934     0.04800
C755        C  0.47181541  0.82505403  0.12213553    -0.15700
C756        C  0.49261690  0.85400617  0.14444094     0.04800
C757        C  0.03068853  0.87136888  0.14159286     0.04800
C758        C  0.04682184  0.86187251  0.11353306    -0.15700
H759        H  0.07561140  0.87774070  0.10887465     0.06900
H760        H  0.44311073  0.80932277  0.12712388     0.06900
C761        C  0.02742980  0.88813881  0.31800452    -0.13900
C762        C  0.06228368  0.91263664  0.31568818    -0.29000
H763        H  0.00891564  0.88996704  0.29993015     0.15200
H764        H  0.08253503  0.91181810  0.33210838     0.15700
C765        C  0.04530654  0.92842315  0.17509878    -0.13900
C766        C  0.05440251  0.90237382  0.16455568    -0.29000
H767        H  0.02079266  0.92786005  0.16533383     0.15200
H768        H  0.07935153  0.90318704  0.17339892     0.15700
C769        C  0.13160397  0.56994989  0.32436142    -0.13900
C770        C  0.12225928  0.59712558  0.32704642    -0.29000
H771        H  0.15013792  0.56823152  0.34240044     0.15200
H772        H  0.10502373  0.59793559  0.30702566     0.15700
C773        C  0.14105669  0.57643892  0.18074677    -0.13900
C774        C  0.12236393  0.59145523  0.16625074    -0.29000
H775        H  0.17013230  0.58759812  0.17676473     0.15200
H776        H  0.09330377  0.57988361  0.17067503     0.15700
C777        C  0.43499655  0.85382322  0.32048087    -0.13900
C778        C  0.46628307  0.87014412  0.33747347    -0.29000
H779        H  0.41836290  0.82486698  0.32158253     0.15200
H780        H  0.48234112  0.89917781  0.33592120     0.15700
C781        C  0.47598902  0.86377765  0.17482523    -0.13900
C782        C  0.44228877  0.86045749  0.17614442    -0.29000
H783        H  0.49342908  0.87717419  0.19646438     0.15200
H784        H  0.42320097  0.84649181  0.15585424     0.15700
C785        C  0.38662955  0.96475841  0.32510269    -0.13900
C786        C  0.35240707  0.95965325  0.32943905    -0.29000
H787        H  0.40820390  0.98631758  0.33937185     0.15200
H788        H  0.33058518  0.93748636  0.31601770     0.15700
C789        C  0.36552298  0.96293207  0.17032728    -0.13900
C790        C  0.39836302  0.97029728  0.18163519    -0.29000
H791        H  0.34193571  0.93891730  0.17871554     0.15200
H792        H  0.42209885  0.99332407  0.17183320     0.15700
C793        C  0.40970160  0.57538815  0.32386769    -0.13900
C794        C  0.38399123  0.54076604  0.32451796    -0.29000
H795        H  0.41226645  0.59437103  0.34466296     0.15200
H796        H  0.38218437  0.52424911  0.30175267     0.15700
C797        C  0.39492640  0.54054048  0.17339217    -0.13900
C798        C  0.42421908  0.57267923  0.17409474    -0.29000
H799        H  0.38730492  0.52548113  0.19697931     0.15200
H800        H  0.43265907  0.58967726  0.15183194     0.15700
C801        C  0.07634636  0.63191306  0.34233166    -0.13900
C802        C  0.06721892  0.65492741  0.32685721    -0.29000
H803        H  0.06022142  0.60310849  0.33791061     0.15200
H804        H  0.08273614  0.68384150  0.33100447     0.15700
C805        C  0.10068154  0.64705855  0.18286681    -0.13900
C806        C  0.07497521  0.65834551  0.18312610    -0.29000
H807        H  0.10008992  0.63020135  0.20376986     0.15200
H808        H  0.07468818  0.67625931  0.16372317     0.15700
C809        C  0.15987055  0.73263772  0.07406398    -0.13900
C810        C  0.18227557  0.72166278  0.08788199    -0.29000
H811        H  0.13086248  0.71678505  0.07802109     0.15200
H812        H  0.21116947  0.73589409  0.08253965     0.15700
C813        C  0.07658280  0.82747518  0.06088336    -0.13900
C814        C  0.04416870  0.82711486  0.05930455    -0.29000
H815        H  0.08849200  0.82905588  0.08575169     0.15200
H816        H  0.03068318  0.82229832  0.03480024     0.15700
C817        C  0.28539100  0.95354189  0.04870812    -0.13900
C818        C  0.31878929  0.95922066  0.05663048    -0.32000
H819        H  0.27576948  0.97286024  0.05721847     0.15200
H820        H  0.32738437  0.93896710  0.04861233     0.15700
C821        C  0.15843116  0.70978394  0.43457297    -0.13900
C822        C  0.14533523  0.73416772  0.43586079    -0.29000
H823        H  0.17303407  0.70807202  0.45654496     0.15200
H824        H  0.13120920  0.73694761  0.41406898     0.15700
C825        C  0.04767862  0.82873026  0.44395440    -0.13900
C826        C  0.04025742  0.81579878  0.41155952    -0.29000
H827        H  0.03393223  0.84349021  0.45533322     0.15200
H828        H  0.05730371  0.80551650  0.39842383     0.15700
C829        C  0.26808377  0.93113229  0.43988242    -0.13900
C830        C  0.27430571  0.96281900  0.42643010    -0.29000
H831        H  0.28862315  0.92177727  0.43728923     0.15200
H832        H  0.25504459  0.97354005  0.43123587     0.15700
C833        C  0.06554838  0.72773460  0.94428616    -0.13900
C834        C  0.03359885  0.72168967  0.93082487    -0.29000
H835        H  0.07384456  0.70643372  0.94309392     0.15200
H836        H  0.02396025  0.74189562  0.93437356     0.15700
C837        C  0.15426456  0.96020601  0.93666528    -0.13900
C838        C  0.18032851  0.94985285  0.93839310    -0.29000
H839        H  0.12844647  0.94478349  0.94965905     0.15200
H840        H  0.20571889  0.96423742  0.92440353     0.15700
C841        C  0.26899354  0.83748668  0.56767078    -0.13900
C842        C  0.27865720  0.81390963  0.58091905    -0.29000
H843        H  0.28643303  0.86618333  0.57137579     0.15200
H844        H  0.26248754  0.78521559  0.57590254     0.15700
C845        C  0.26990091  0.84791247  0.94074984    -0.13900
C846        C  0.29978895  0.84302517  0.94338685    -0.29000
H847        H  0.26258333  0.85414722  0.91631840     0.15200
H848        H  0.30617618  0.83679987  0.96836321     0.15700
C849        C  0.17948385  0.95937791  0.55992771    -0.13900
C850        C  0.17761997  0.92661221  0.56269063    -0.29000
H851        H  0.18528817  0.97193441  0.53499770     0.15200
H852        H  0.17460830  0.91487295  0.58777205     0.15700
C853        C  0.04254974  0.68361112  0.56260293    -0.13900
C854        C  0.04608206  0.71567147  0.55256883    -0.29000
H855        H  0.06414237  0.67642351  0.55597194     0.15200
H856        H  0.02558398  0.72409322  0.56002380     0.15700
C857        C  0.42313598  0.86126438  0.81927391    -0.13900
C858        C  0.41442530  0.88190248  0.84109134    -0.29000
H859        H  0.40890047  0.83208928  0.82064130     0.15200
H860        H  0.42829790  0.91104025  0.83896142     0.15700
C861        C  0.08069176  0.94326982  0.82235781    -0.13900
C862        C  0.09143911  0.97556912  0.83858763    -0.29000
H863        H  0.09454799  0.92706253  0.82662883     0.15200
H864        H  0.07791565  0.99185117  0.83329135     0.15700
C865        C  0.09380305  0.95437699  0.65344015    -0.13900
C866        C  0.08962678  0.96352449  0.68604697    -0.29000
H867        H  0.07140728  0.43279612  0.64491440     0.15200
H868        H  0.11021587  0.98783839  0.69795264     0.15700
C869        C  0.40546427  0.85532187  0.66439970    -0.13900
C870        C  0.42828925  0.88890259  0.67510018    -0.29000
H871        H  0.41014823  0.83287003  0.67172283     0.15200
H872        H  0.42452192  0.91159881  0.66687051     0.15700
C873        C  0.06382244  0.65064723  0.82747947    -0.13900
C874        C  0.02961345  0.63171506  0.83933361    -0.29000
H875        H  0.07979613  0.67867240  0.83507079     0.15200
H876        H  0.01478953  0.60429107  0.82955816     0.15700
C877        C  0.14906244  0.57132691  0.82773384    -0.13900
C878        C  0.13841923  0.53563961  0.82862364    -0.29000
H879        H  0.16753226  0.58983594  0.84655245     0.15200
H880        H  0.12104746  0.51904650  0.80808247     0.15700
C881        C  0.14900143  0.56701179  0.68239217    -0.13900
C882        C  0.12828081  0.53708070  0.66384403    -0.29000
H883        H  0.17821617  0.57979989  0.67917025     0.15200
H884        H  0.09911558  0.52494794  0.66754304     0.15700
C885        C  0.06497072  0.64293441  0.68223129    -0.13900
C886        C  0.02923424  0.62615909  0.67557150    -0.29000
H887        H  0.08373271  0.66551004  0.66740877     0.15200
H888        H  0.01237769  0.60637233  0.69386398     0.15700
C889        C  0.45211219  0.57723578  0.82392754    -0.13900
C890        C  0.44316356  0.60380599  0.83303608    -0.29000
H891        H  0.47578713  0.57731997  0.83517295     0.15200
H892        H  0.41838261  0.60283774  0.82353242     0.15700
C893        C  0.35145115  0.92808182  0.82895851    -0.13900
C894        C  0.35595834  0.89816896  0.82954043    -0.29000
H895        H  0.34036836  0.93670811  0.85096324     0.15200
H896        H  0.36657679  0.89078844  0.80632029     0.15700
C897        C  0.44355555  0.58968624  0.66770017    -0.13900
C898        C  0.44763017  0.56052158  0.67516952    -0.29000
H899        H  0.42233225  0.59452993  0.68017949     0.15200
H900        H  0.46868318  0.55607809  0.66171565     0.15700
C901        C  0.34794834  0.91536393  0.68120707    -0.13900
C902        C  0.35399756  0.88616244  0.68032590    -0.29000
H903        H  0.33373266  0.92020154  0.66064936     0.15200
H904        H  0.36718147  0.88211642  0.70225451     0.15700
C905        C  0.44692394  0.67637742  0.55559628    -0.13900
C906        C  0.45740098  0.65030965  0.55808299    -0.29000
H907        H  0.45891832  0.70022077  0.57226152     0.15200
H908        H  0.44459123  0.62609851  0.54199760     0.15700
C909        C  0.31902988  0.57254816  0.43567646    -0.13900
C910        C  0.32291944  0.54247453  0.43839027    -0.29000
H911        H  0.31658358  0.58156789  0.41049494     0.15200
H912        H  0.32256119  0.53214960  0.46371078     0.15700
C913        C  0.22773189  0.57035302  0.56037652    -0.13900
C914        C  0.22236237  0.54115573  0.57784751    -0.29000
H915        H  0.20595350  0.57795315  0.55907328     0.15200
H916        H  0.24285672  0.53168435  0.57706696     0.15700
C917        C  0.43754758  0.78863718  0.44390483    -0.13900
C918        C  0.46270569  0.78423537  0.42458540    -0.29000
H919        H  0.43573432  0.81379694  0.44252013     0.15200
H920        H  0.46553367  0.75962578  0.42585867     0.15700
C921        C  0.21952321  0.65559693  0.43137788    -0.13900
C922        C  0.20824831  0.67826477  0.41864942    -0.29000
H923        H  0.20280091  0.62671861  0.42817516     0.15200
H924        H  0.22408523  0.70708883  0.42318949     0.15700
C925        C  0.34398965  0.76124206  0.56329641    -0.13900
C926        C  0.33044135  0.78516244  0.56514178    -0.29000
H927        H  0.35844559  0.75836296  0.58475983     0.15200
H928        H  0.31596128  0.78719255  0.54321120     0.15700
C929        C  0.21074289  0.53562455  0.92952180    -0.13900
C930        C  0.20715371  0.56236955  0.94666810    -0.29000
H931        H  0.23545551  0.53280067  0.93061323     0.15200
H932        H  0.18214017  0.56439626  0.94358006     0.15700
C933        C  0.22604046  0.64888019  0.06954379    -0.13900
C934        C  0.20399416  0.66473456  0.07191433    -0.29000
H935        H  0.22839981  0.63411755  0.09092057     0.15200
H936        H  0.20309972  0.68021098  0.05043423     0.15700
C937        C  0.41977028  0.68335908  0.93571196    -0.13900
C938        C  0.45075389  0.68038049  0.93733462    -0.29000
H939        H  0.40891901  0.68409124  0.91088327     0.15200
H940        H  0.46279437  0.68243654  0.96222569     0.15700
C941        C  0.32144582  0.55494121  0.05591491    -0.13900
C942        C  0.34844570  0.54580622  0.05833058    -0.29000
H943        H  0.29625527  0.53993269  0.07001135     0.15200
H944        H  0.37407334  0.56178392  0.04529516     0.15700
C945        C  0.43278884  0.77701586  0.06037627    -0.13900
C946        C  0.46512706  0.78272814  0.07253219    -0.29000
H947        H  0.42425225  0.79806063  0.06373574     0.15200
H948        H  0.47504048  0.76298372  0.06697986     0.15700
C949        C  0.35075804  0.80779456  0.94046047    -0.13900
C950        C  0.31983348  0.77855829  0.94746411    -0.29000
H951        H  0.37610784  0.80892300  0.94857495     0.15200
H952        H  0.29451533  0.77639459  0.93808092     0.15700
O953        O  0.86218167  0.10895392  0.01781860    -0.78300
O954        O  0.84430445  0.23813862  0.96338621    -0.63000
O955        O  0.84161731  0.16472962  0.02140387    -1.09600
C956        C  0.73597301  0.08959045  0.96030350     1.08600
O957        O  0.78536393  0.22065548  0.97016132    -0.76200
O958        O  0.74920776  0.16686012  0.01300332    -0.63800
Ni959      Ni  0.88447096  0.15990724  0.02991425     1.34900
C960        C  0.75024329  0.14654651  0.03591581     0.87300
O961        O  0.88470662  0.23952055  0.01682289    -0.76800
O962        O  0.91034516  0.21009695  0.04366558    -0.87000
C963        C  0.81662438  0.24348179  0.96046795     0.86900
O964        O  0.90605901  0.16999518  0.98513250    -0.65200
O965        O  0.73203933  0.11810044  0.95940587    -0.84500
C966        C  0.90058062  0.18372519  0.95874616     0.87700
C967        C  0.90822182  0.23885553  0.03686581     1.09300
H968        H  0.81184752  0.15969994  0.94684263     0.41100
O969        O  0.80457956  0.16367905  0.96976235    -1.07200
O970        O  0.76815288  0.12853165  0.03209291    -0.63800
Ni971      Ni  0.80239137  0.12602824  0.99797555     1.26300
O972        O  0.87741685  0.19602503  0.95827943    -0.64100
O973        O  0.76363985  0.08861049  0.97259319    -0.76400
C974        C  0.83157391  0.08537893  0.02871044     0.87100
O975        O  0.80353421  0.08994952  0.02625326    -0.63500
Ni976      Ni  0.76139635  0.16905484  0.96557058     1.27400
Ni977      Ni  0.84486853  0.20202379  0.99229875     1.26100
H978        H  0.83291038  0.16885832  0.04360124     0.41600
O979        O  0.77219872  0.19892541  0.46094452    -0.78300
O980        O  0.90910763  0.19731595  0.52917007    -0.63000
O981        O  0.83430634  0.18769004  0.46881823    -1.09600
C982        C  0.76205609  0.08863586  0.53990428     1.08600
O983        O  0.89237289  0.13886145  0.52490772    -0.76200
O984        O  0.83230912  0.08935657  0.49394590    -0.63800
Ni985      Ni  0.82445861  0.22782092  0.46304069     1.34900
C986        C  0.82035948  0.09336867  0.46567128     0.87300
O987        O  0.90793976  0.23181631  0.47205474    -0.76800
O988        O  0.87526852  0.26101287  0.46148314    -0.87000
C989        C  0.91481381  0.17051616  0.53465373     0.86900
O990        O  0.82176667  0.23821277  0.51109979    -0.65200
O991        O  0.79116775  0.08917849  0.55047134    -0.84500
C992        C  0.84479849  0.24215145  0.53381772     0.87700
C993        C  0.90480116  0.25854138  0.46060086     1.09300
H994        H  0.82910335  0.16569565  0.54472869     0.41100
O995        O  0.83461338  0.15588185  0.52380264    -1.07200
O996        O  0.80820689  0.11599157  0.46184791    -0.63800
Ni997      Ni  0.79776154  0.14783155  0.49203331     1.26300
O998        O  0.86719473  0.22909531  0.52997863    -0.64100
O999        O  0.76120899  0.10874098  0.51653148    -0.76400
C1000       C  0.75306852  0.16575217  0.45275258     0.87100
O1001       O  0.76242525  0.14186312  0.45974814    -0.63500
Ni1002     Ni  0.84145463  0.11545391  0.53685904     1.27400
Ni1003     Ni  0.87225287  0.19406096  0.49891005     1.26100
H1004       H  0.83934449  0.18015837  0.44638008     0.41600
O1005       O  0.90211036  0.03496749  0.71494122    -0.71900
O1006       O  0.85134557  0.47180508  0.79208959    -0.71900
O1007       O  0.90099915  0.04022177  0.78466230    -0.71900
O1008       O  0.86045599  0.45801966  0.72400730    -0.72000
O1009       O  0.91131955  0.45594620  0.73754461    -0.71900
O1010       O  0.94634753  0.02545066  0.78613111    -0.71900
O1011       O  0.90345779  0.47125798  0.80368053    -0.71900
O1012       O  0.94724699  0.01993826  0.71658016    -0.71900
Ni1013     Ni  0.87566204  0.00233124  0.75132004     1.25400
Ni1014     Ni  0.92452903  0.98700751  0.75293664     1.25400
C1015       C  0.93316124  0.03860491  0.70416845     0.90300
C1016       C  0.87000571  0.46156880  0.81046387     0.90200
C1017       C  0.93150364  0.04521185  0.79644340     0.90300
C1018       C  0.88099965  0.44234715  0.72216118     0.90400
O1019       O  0.60234597  0.06019905  0.71426283    -0.71900
O1020       O  0.56378944  0.09860840  0.78578333    -0.71900
O1021       O  0.56238679  0.09662630  0.71686579    -0.71900
O1022       O  0.60450328  0.06226493  0.78362603    -0.72000
O1023       O  0.65453981  0.11481376  0.78398252    -0.71900
O1024       O  0.61356337  0.14802565  0.71464559    -0.71900
O1025       O  0.61412998  0.15091098  0.78461556    -0.71900
O1026       O  0.65376912  0.11143897  0.71413947    -0.71900
Ni1027     Ni  0.58151829  0.07757411  0.75026384     1.25400
Ni1028     Ni  0.63581872  0.13320405  0.74927602     1.25400
C1029       C  0.63438937  0.07932909  0.70249825     0.90300
C1030       C  0.58223245  0.13121745  0.79645458     0.90200
C1031       C  0.58118741  0.12800509  0.70464122     0.90300
C1032       C  0.63637195  0.08273968  0.79476202     0.90400
O1033       O  0.54902588  0.44233746  0.78229790    -0.71900
O1034       O  0.96991391  0.42832399  0.72077390    -0.71900
O1035       O  0.96265914  0.41323926  0.78865402    -0.71900
O1036       O  0.54457344  0.44402058  0.71330082    -0.72000
O1037       O  0.54215135  0.38942614  0.70875962    -0.71900
O1038       O  0.96392999  0.36080370  0.77842852    -0.71900
O1039       O  0.96782897  0.37443880  0.71008237    -0.71900
O1040       O  0.54593695  0.38749911  0.77837110    -0.71900
Ni1041     Ni  0.51062845  0.43026942  0.75127424     1.25400
Ni1042     Ni  0.50717670  0.37151390  0.74543658     1.25400
C1043       C  0.56010957  0.41980420  0.79106410     0.90300
C1044       C  0.95765425  0.39845013  0.70367750     0.90200
C1045       C  0.95100943  0.37976722  0.79477217     0.90300
C1046       C  0.55471734  0.42185709  0.69877579     0.90400
C1047       C  0.51629779  0.16484725  0.58949840     0.04800
C1048       C  0.97503149  0.14823428  0.58943861     0.04800
C1049       C  0.95521048  0.12470763  0.61565235    -0.15700
C1050       C  0.97210928  0.12044987  0.64447517     0.04800
C1051       C  0.51165872  0.13469943  0.64409246     0.04800
C1052       C  0.53226700  0.15735728  0.61740748    -0.15700
H1053       H  0.56140275  0.16906297  0.61730934     0.06900
H1054       H  0.92621007  0.10859293  0.61306282     0.06900
C1055       C  0.68680501  0.01385373  0.59164001     0.04800
C1056       C  0.66774682  0.48036486  0.59016430     0.04800
C1057       C  0.63617694  0.46298994  0.61040995    -0.15700
C1058       C  0.62532810  0.48252919  0.63441439     0.04800
C1059       C  0.64278828  0.01328422  0.63532361     0.04800
C1060       C  0.67403720  0.03202973  0.61509452    -0.15700
H1061       H  0.68837129  0.06115075  0.61712783     0.06900
H1062       H  0.61883858  0.43447548  0.60604772     0.06900
C1063       C  0.82787790  0.35028624  0.91893775     0.04800
C1064       C  0.85223965  0.33466947  0.91667825     0.04800
C1065       C  0.87918905  0.34549959  0.89093949    -0.15700
C1066       C  0.88150014  0.36989953  0.86622224     0.04800
C1067       C  0.85622955  0.38384476  0.86661354     0.04800
C1068       C  0.83050139  0.37500425  0.89348027    -0.15700
H1069       H  0.81279371  0.38765540  0.89420709     0.06900
H1070       H  0.89858002  0.33468512  0.89002374     0.06900
C1071       C  0.83691472  0.31221574  0.59864994     0.04800
C1072       C  0.81423479  0.32927932  0.60192218     0.04800
C1073       C  0.82254401  0.35799066  0.62595996    -0.15700
C1074       C  0.85218312  0.36977473  0.64797314     0.04800
C1075       C  0.87392220  0.35119253  0.64620478     0.04800
C1076       C  0.86589548  0.32289286  0.62163231    -0.15700
H1077       H  0.88367681  0.31030290  0.61976034     0.06900
H1078       H  0.80511247  0.37104683  0.62815489     0.06900
C1079       C  0.66119672  0.47771270  0.90676344     0.04800
C1080       C  0.68334215  0.01282374  0.89903759     0.04800
C1081       C  0.67962830  0.03122002  0.87089729    -0.15700
C1082       C  0.64941632  0.01494656  0.84951033     0.04800
C1083       C  0.63436040  0.48376149  0.85363705     0.04800
C1084       C  0.63701660  0.46248536  0.87950570    -0.15700
H1085       H  0.61927911  0.43382697  0.87949593     0.06900
H1086       H  0.69979279  0.05864834  0.86641868     0.06900
C1087       C  0.97265111  0.17553089  0.89806587     0.04800
C1088       C  0.51327486  0.18930148  0.89789914     0.04800
C1089       C  0.53100696  0.17849587  0.87215245    -0.15700
C1090       C  0.51172245  0.15012454  0.84861784     0.04800
C1091       C  0.96879893  0.13405680  0.84995715     0.04800
C1092       C  0.95220210  0.14786822  0.87430665    -0.15700
H1093       H  0.92292461  0.13525582  0.87612473     0.06900
H1094       H  0.56009783  0.19352566  0.86992011     0.06900
O1095       O  0.60755457  0.36605514  0.47377644    -0.78300
O1096       O  0.73025056  0.35406260  0.54024449    -0.63000
O1097       O  0.66193689  0.34478564  0.47408582    -1.09600
C1098       C  0.58168718  0.24499512  0.53766269     1.08600
O1099       O  0.71486149  0.29551693  0.54304103    -0.76200
O1100       O  0.66477644  0.25560627  0.49316178    -0.63800
Ni1101     Ni  0.65805796  0.38682141  0.46124678     1.34900
C1102       C  0.64491273  0.25399406  0.46820664     0.87300
O1103       O  0.73587152  0.38845409  0.48234887    -0.76800
O1104       O  0.70832848  0.41016978  0.44764918    -0.87000
C1105       C  0.73652486  0.32869406  0.54936065     0.86900
O1106       O  0.66811379  0.41342989  0.50387860    -0.65200
O1107       O  0.60982376  0.24028781  0.54142277    -0.84500
C1108       C  0.67755024  0.40772269  0.53273776     0.87700
C1109       C  0.73653556  0.40889733  0.45834307     1.09300
H1110       H  0.65173030  0.32111969  0.55142565     0.41100
O1111       O  0.65722465  0.31225670  0.52989466    -1.07200
O1112       O  0.62603464  0.27116102  0.46843240    -0.63800
Ni1113     Ni  0.62180878  0.30803827  0.49758473     1.26300
O1114       O  0.68800624  0.38386239  0.53683473    -0.64100
O1115       O  0.58262778  0.27217527  0.52296561    -0.76400
C1116       C  0.58416254  0.33587651  0.46213033     0.87100
O1117       O  0.58799720  0.30761137  0.46521044    -0.63500
Ni1118     Ni  0.66204867  0.27005273  0.54002515     1.27400
Ni1119     Ni  0.69678484  0.35053297  0.50699730     1.26100
H1120       H  0.66731333  0.33455097  0.45332994     0.41600
O1121       O  0.69553829  0.26940234  0.04112119    -0.78300
O1122       O  0.70021541  0.40497722  0.97033702    -0.63000
O1123       O  0.68257689  0.33001705  0.03258961    -1.09600
C1124       C  0.59006214  0.25916470  0.95334979     1.08600
O1125       O  0.64197253  0.38996176  0.96835053    -0.76200
O1126       O  0.59034672  0.33160916  0.99893541    -0.63800
Ni1127     Ni  0.72173033  0.32148199  0.04713032     1.34900
C1128       C  0.58995430  0.31620098  0.02652287     0.87300
O1129       O  0.72774456  0.40439037  0.03115699    -0.76800
O1130       O  0.75021890  0.37204110  0.05785200    -0.87000
C1131       C  0.67484860  0.41178479  0.96181305     0.86900
O1132       O  0.74568599  0.32568177  0.00305478    -0.65200
O1133       O  0.59081520  0.28867154  0.94429124    -0.84500
C1134       C  0.74773841  0.34474636  0.97747468     0.87700
C1135       C  0.74898316  0.40148157  0.05231840     1.09300
H1136       H  0.66849750  0.32619736  0.95396871     0.41100
O1137       O  0.65687589  0.33102837  0.97398437    -1.07200
O1138       O  0.60998274  0.30110979  0.03135533    -0.63800
Ni1139     Ni  0.64607802  0.29326705  0.00525874     1.26300
O1140       O  0.72981425  0.36251506  0.97573903    -0.64100
O1141       O  0.61009991  0.25720312  0.97652663    -0.76400
C1142       C  0.66210306  0.24941610  0.04785503     0.87100
O1143       O  0.63784347  0.25712951  0.03759497    -0.63500
Ni1144     Ni  0.61799546  0.33885247  0.95740425     1.27400
Ni1145     Ni  0.69267943  0.36824047  0.00184558     1.26100
H1146       H  0.67162929  0.33468301  0.05318590     0.41600
O1147       O  0.95607218  0.09926537  0.21698269    -0.71900
O1148       O  0.52653337  0.15479994  0.29065785    -0.71900
O1149       O  0.53062585  0.15508693  0.22085011    -0.71900
O1150       O  0.95595093  0.11199781  0.28626629    -0.72000
O1151       O  0.95503635  0.05880569  0.29429127    -0.71900
O1152       O  0.53026241  0.10141901  0.22074788    -0.71900
O1153       O  0.52555277  0.10080239  0.29022264    -0.71900
O1154       O  0.95526914  0.04632346  0.22644031    -0.71900
Ni1155     Ni  0.99293814  0.12387902  0.25049127     1.25400
Ni1156     Ni  0.99177981  0.06703213  0.26035848     1.25400
C1157       C  0.94342959  0.06530734  0.21099070     0.90300
C1158       C  0.53756694  0.13315678  0.30221024     0.90200
C1159       C  0.54337643  0.13366357  0.20982995     0.90300
C1160       C  0.94306556  0.08169973  0.30145584     0.90400
O1161       O  0.93064960  0.45510814  0.27988226    -0.71900
O1162       O  0.95723148  0.40023403  0.21447388    -0.71900
O1163       O  0.93564471  0.45195367  0.21018237    -0.71900
O1164       O  0.95246472  0.40385884  0.28358350    -0.72000
O1165       O  0.89594276  0.35985493  0.28052587    -0.71900
O1166       O  0.87747637  0.41131730  0.20979152    -0.71900
O1167       O  0.89947818  0.35915581  0.21037798    -0.71900
O1168       O  0.87350857  0.41206237  0.27951673    -0.71900
Ni1169     Ni  0.94596135  0.42926214  0.24708020     1.25400
Ni1170     Ni  0.88445611  0.38400180  0.24502069     1.25400
C1171       C  0.89792172  0.44236605  0.29098449     0.90300
C1172       C  0.93275554  0.37108200  0.20116002     0.90200
C1173       C  0.90384215  0.43985037  0.19810607     0.90300
C1174       C  0.92737677  0.37391557  0.29398050     0.90400
C1175       C  0.81071816  0.48071626  0.40214620     0.04800
C1176       C  0.82715956  0.01945704  0.40804377     0.04800
C1177       C  0.85256027  0.03800588  0.38190771    -0.15700
C1178       C  0.86039803  0.01926904  0.35476552     0.04800
C1179       C  0.84700818  0.48029042  0.35139565     0.04800
C1180       C  0.81953499  0.46203533  0.37577886    -0.15700
H1181       H  0.80449151  0.43291043  0.37391818     0.06900
H1182       H  0.86629427  0.06714236  0.38290587     0.06900
O1183       O  0.59612796  0.44967429  0.27487265    -0.71900
O1184       O  0.65691198  0.03114644  0.21906414    -0.71900
O1185       O  0.65325618  0.03010615  0.28901545    -0.71900
O1186       O  0.60519795  0.45957671  0.20592891    -0.72000
O1187       O  0.55883966  0.47281342  0.20397920    -0.71900
O1188       O  0.59879769  0.02832588  0.28755395    -0.71900
O1189       O  0.60228549  0.02910739  0.21807880    -0.71900
O1190       O  0.54718260  0.45857147  0.27121703    -0.71900
Ni1191     Ni  0.62420809  0.49025307  0.24641548     1.25400
Ni1192     Ni  0.57253480  0.50125709  0.24534434     1.25400
C1193       C  0.56252102  0.44002562  0.28121376     0.90300
C1194       C  0.63526986  0.04232849  0.20756968     0.90200
C1195       C  0.63068558  0.04152959  0.29996245     0.90300
C1196       C  0.57641219  0.45647650  0.19157051     0.90400
C1197       C  0.86026495  0.02436003  0.07606114     0.04800
C1198       C  0.82876992  0.48385815  0.09006017     0.04800
C1199       C  0.83592418  0.46547375  0.11611099    -0.15700
C1200       C  0.86217896  0.48349864  0.14074677     0.04800
C1201       C  0.89233783  0.02498420  0.12809077     0.04800
C1202       C  0.88879474  0.04199190  0.09908098    -0.15700
H1203       H  0.90754647  0.07011975  0.09531480     0.06900
H1204       H  0.82174446  0.43631928  0.11679397     0.06900
C1205       C  0.67236211  0.16243918  0.40364861     0.04800
C1206       C  0.64854035  0.17808859  0.40886909     0.04800
C1207       C  0.61717849  0.16493294  0.38889384    -0.15700
C1208       C  0.60921774  0.13690292  0.36415765     0.04800
C1209       C  0.63296919  0.12100667  0.35885982     0.04800
C1210       C  0.66453955  0.13454574  0.37860099    -0.15700
H1211       H  0.68400163  0.12427348  0.37395028     0.06900
H1212       H  0.59777290  0.17536239  0.39348448     0.06900
C1213       C  0.67810442  0.15099129  0.09954020     0.04800
C1214       C  0.66090721  0.17360596  0.10341459     0.04800
C1215       C  0.63250416  0.16533593  0.12777678    -0.15700
C1216       C  0.62052306  0.13485005  0.14856579     0.04800
C1217       C  0.63811553  0.11247411  0.14465918     0.04800
C1218       C  0.66651675  0.12082503  0.12050413    -0.15700
H1219       H  0.67817446  0.10235648  0.11699731     0.06900
H1220       H  0.61997940  0.18308502  0.13029914     0.06900
C1221       C  0.98205574  0.31277385  0.39972893     0.04800
C1222       C  0.51834344  0.32449585  0.39384112     0.04800
C1223       C  0.53913623  0.35073958  0.37003728    -0.15700
C1224       C  0.52413592  0.36852239  0.35123395     0.04800
C1225       C  0.98407567  0.35649050  0.35830507     0.04800
C1226       C  0.96443147  0.32648088  0.37870188    -0.15700
H1227       H  0.93516842  0.31495368  0.37978295     0.06900
H1228       H  0.56787752  0.35871715  0.36746158     0.06900
C1229       C  0.52200848  0.33520343  0.08129440     0.04800
C1230       C  0.98878938  0.31065755  0.08822902     0.04800
C1231       C  0.97283959  0.31973805  0.11697586    -0.15700
C1232       C  0.99384860  0.34699589  0.14089968     0.04800
C1233       C  0.53186618  0.37321581  0.13317966     0.04800
C1234       C  0.54512117  0.35936805  0.10618460    -0.15700
H1235       H  0.57410633  0.36880935  0.10380352     0.06900
H1236       H  0.94403146  0.30421350  0.12147447     0.06900
C1237       C  0.54937916  0.39886881  0.32943024    -0.13900
C1238       C  0.54007523  0.40650244  0.29920842    -0.29000
H1239       H  0.57640188  0.41583270  0.33897452     0.15200
H1240       H  0.51376440  0.38934728  0.28849799     0.15700
C1241       C  0.56169005  0.43347663  0.16065324    -0.13900
C1242       C  0.55835328  0.39989743  0.15751888    -0.29000
H1243       H  0.54623412  0.44118763  0.14361303     0.15200
H1244       H  0.57236617  0.39081597  0.17487093     0.15700
C1245       C  0.64168399  0.07034075  0.32735550    -0.13900
C1246       C  0.62511245  0.09176406  0.33149205    -0.29000
H1247       H  0.66369957  0.07372486  0.34372621     0.15200
H1248       H  0.60441192  0.08746490  0.31305028     0.15700
C1249       C  0.64885681  0.07170409  0.18264978    -0.13900
C1250       C  0.62597810  0.07922333  0.16482504    -0.29000
H1251       H  0.67785760  0.08859221  0.18038207     0.15200
H1252       H  0.59716551  0.06143929  0.16674509     0.15700
C1253       C  0.93602782  0.35502032  0.32077727    -0.13900
C1254       C  0.96475490  0.37354425  0.34090210    -0.29000
H1255       H  0.92191899  0.32578709  0.32095910     0.15200
H1256       H  0.97790061  0.40280726  0.34046148     0.15700
C1257       C  0.97681370  0.35510579  0.17213626    -0.13900
C1258       C  0.94316094  0.35217236  0.17355520    -0.29000
H1259       H  0.99385036  0.36730923  0.19424790     0.15200
H1260       H  0.92431206  0.33911276  0.15288789     0.15700
C1261       C  0.88909073  0.46339039  0.31761715    -0.13900
C1262       C  0.85509904  0.45772264  0.32528093    -0.29000
H1263       H  0.91160491  0.48523703  0.33060283     0.15200
H1264       H  0.83247797  0.43487656  0.31351743     0.15700
C1265       C  0.86679229  0.46115669  0.16707534    -0.13900
C1266       C  0.89816005  0.45972640  0.17046979    -0.29000
H1267       H  0.84345376  0.44447838  0.18282989     0.15200
H1268       H  0.92121511  0.47596265  0.15417528     0.15700
C1269       C  0.91381509  0.07189011  0.32770746    -0.13900
C1270       C  0.88566467  0.03866179  0.32586282    -0.29000
H1271       H  0.91783033  0.08970208  0.34989431     0.15200
H1272       H  0.88305463  0.02344359  0.30198405     0.15700
C1273       C  0.92087430  0.04736633  0.15276694    -0.13900
C1274       C  0.91411641  0.04713802  0.18661605    -0.29000
H1275       H  0.94773296  0.06497226  0.14281398     0.15200
H1276       H  0.88724801  0.03020437  0.19685961     0.15700
C1277       C  0.57548978  0.12381302  0.34414531    -0.13900
C1278       C  0.56579114  0.14633300  0.32861220    -0.29000
H1279       H  0.56010880  0.09499193  0.33935357     0.15200
H1280       H  0.58080974  0.17523585  0.33319915     0.15700
C1281       C  0.58996848  0.12571180  0.17445621    -0.13900
C1282       C  0.57363995  0.14635157  0.18408615    -0.29000
H1283       H  0.58023376  0.10034760  0.18727913     0.15200
H1284       H  0.58240588  0.17284919  0.17373032     0.15700
C1285       C  0.65029134  0.21597909  0.06744590    -0.13900
C1286       C  0.67343242  0.20682140  0.08279484    -0.29000
H1287       H  0.62137539  0.19882874  0.07021966     0.15200
H1288       H  0.70236665  0.22338326  0.07931971     0.15700
C1289       C  0.56666338  0.31739389  0.05534700    -0.13900
C1290       C  0.53869053  0.32491690  0.05138194    -0.29000
H1291       H  0.57407170  0.31402470  0.08101502     0.15200
H1292       H  0.52938488  0.32579623  0.02582162     0.15700
C1293       C  0.77115314  0.43221557  0.07482226    -0.13900
C1294       C  0.80041009  0.46206191  0.06452936    -0.32000
H1295       H  0.76645062  0.42691308  0.10208781     0.15200
H1296       H  0.80532382  0.46816722  0.03743246     0.15700
C1297       C  0.65470517  0.20544332  0.43744552    -0.13900
C1298       C  0.64214988  0.23026475  0.43774268    -0.29000
H1299       H  0.66947481  0.20449146  0.45961469     0.15200
H1300       H  0.62771652  0.23215038  0.41574561     0.15700
C1301       C  0.55295579  0.33503037  0.44494069    -0.13900
C1302       C  0.53798373  0.31338853  0.41768831    -0.29000
H1303       H  0.54653782  0.35729097  0.45062561     0.15200
H1304       H  0.54641011  0.29314425  0.40930713     0.15700
C1305       C  0.77168807  0.43103761  0.44093056    -0.13900
C1306       C  0.77796019  0.46101598  0.42408315    -0.29000
H1307       H  0.79251047  0.42204190  0.44116089     0.15200
H1308       H  0.75825691  0.47149111  0.42599908     0.15700
C1309       C  0.56568031  0.22543153  0.93512457    -0.13900
C1310       C  0.53502262  0.22112866  0.92034270    -0.29000
H1311       H  0.57332776  0.20367605  0.93342140     0.15200
H1312       H  0.52577876  0.24159402  0.92435733     0.15700
C1313       C  0.65725872  0.45354530  0.93502079    -0.13900
C1314       C  0.68360205  0.44527917  0.94350832    -0.29000
H1315       H  0.62975652  0.43679853  0.94400642     0.15200
H1316       H  0.71089543  0.46074510  0.93341930     0.15700
C1317       C  0.77071458  0.33954470  0.56763033    -0.13900
C1318       C  0.78077160  0.31641452  0.58120969    -0.29000
H1319       H  0.78802135  0.36831365  0.57089668     0.15200
H1320       H  0.76443693  0.28761662  0.57697616     0.15700
C1321       C  0.77152868  0.34720593  0.94747632    -0.13900
C1322       C  0.80178814  0.34289718  0.94877533    -0.29000
H1323       H  0.76442727  0.35501047  0.92371141     0.15200
H1324       H  0.80817225  0.33467383  0.97274497     0.15700
C1325       C  0.67494117  0.46076776  0.56060108    -0.13900
C1326       C  0.67481097  0.42863457  0.56332649    -0.29000
H1327       H  0.68052373  0.47341539  0.53573762     0.15200
H1328       H  0.67185539  0.41709994  0.58850263     0.15700
C1329       C  0.54169669  0.18573471  0.56168602    -0.13900
C1330       C  0.54667613  0.21855128  0.55279541    -0.29000
H1331       H  0.56255778  0.17767771  0.55443405     0.15200
H1332       H  0.52680590  0.22775363  0.56047074     0.15700
C1333       C  0.92252630  0.36320686  0.82140540    -0.13900
C1334       C  0.91252142  0.38403448  0.84168823    -0.29000
H1335       H  0.90937430  0.33414354  0.82401420     0.15200
H1336       H  0.92556788  0.41301093  0.83828521     0.15700
C1337       C  0.58896539  0.43170848  0.81703566    -0.13900
C1338       C  0.60838453  0.46725040  0.82468907    -0.29000
H1339       H  0.59297885  0.41137818  0.83022930     0.15200
H1340       H  0.60475505  0.48550129  0.80799673     0.15700
C1341       C  0.59054860  0.46374900  0.65354570    -0.13900
C1342       C  0.58263049  0.43397430  0.67123363    -0.29000
H1343       H  0.57024586  0.92856515  0.64142638     0.15200
H1344       H  0.59902885  0.41984382  0.66755208     0.15700
C1345       C  0.90453327  0.35874037  0.66950540    -0.13900
C1346       C  0.93082024  0.39192699  0.67680985    -0.29000
H1347       H  0.90555993  0.33568067  0.68066742     0.15200
H1348       H  0.93053756  0.41515374  0.66530958     0.15700
C1349       C  0.56637315  0.14615542  0.82292348    -0.13900
C1350       C  0.53150411  0.13960865  0.82123240    -0.29000
H1351       H  0.58352230  0.16180686  0.84386635     0.15200
H1352       H  0.51670746  0.12508111  0.79860230     0.15700
C1353       C  0.65198398  0.06905667  0.82077219    -0.13900
C1354       C  0.64406675  0.03402216  0.82021089    -0.29000
H1355       H  0.66785092  0.08714292  0.84128665     0.15200
H1356       H  0.62886919  0.01748404  0.79851272     0.15700
C1357       C  0.64968199  0.06373645  0.67590535    -0.13900
C1358       C  0.62842711  0.03387956  0.65755833    -0.29000
H1359       H  0.67890306  0.07580194  0.67295059     0.15200
H1360       H  0.59927119  0.02258328  0.66093905     0.15700
C1361       C  0.56588186  0.14101257  0.67778894    -0.13900
C1362       C  0.52982183  0.12711351  0.67346614    -0.29000
H1363       H  0.58509746  0.16184871  0.66158890     0.15200
H1364       H  0.51300846  0.10906398  0.69308796     0.15700
C1365       C  0.95080516  0.07404124  0.82212934    -0.13900
C1366       C  0.94495241  0.10308580  0.82741962    -0.29000
H1367       H  0.97265207  0.07251552  0.83551043     0.15200
H1368       H  0.92227892  0.10424102  0.81527876     0.15700
C1369       C  0.85335608  0.43635651  0.83884981    -0.13900
C1370       C  0.85657278  0.40568206  0.83699414    -0.29000
H1371       H  0.84476354  0.44522213  0.86237621     0.15200
H1372       H  0.86563272  0.39897805  0.81245954     0.15700
C1373       C  0.94867291  0.09319870  0.66984278    -0.13900
C1374       C  0.95419036  0.06485645  0.67751687    -0.29000
H1375       H  0.92558977  0.09571918  0.68103426     0.15200
H1376       H  0.97688115  0.06224021  0.66541920     0.15700
C1377       C  0.86993484  0.40753017  0.70303582    -0.13900
C1378       C  0.85926631  0.40259294  0.67015882    -0.29000
H1379       H  0.87385822  0.38673242  0.71550696     0.15200
H1380       H  0.85483435  0.42364972  0.65869084     0.15700
C1381       C  0.94731285  0.17599638  0.55365696    -0.13900
C1382       C  0.95460137  0.14834928  0.55918131    -0.29000
H1383       H  0.96231813  0.20157796  0.56724184     0.15200
H1384       H  0.93819383  0.12229969  0.54691541     0.15700
C1385       C  0.82143185  0.07153353  0.43533260    -0.13900
C1386       C  0.82236060  0.03988740  0.43819332    -0.29000
H1387       H  0.82128742  0.08163769  0.41003696     0.15200
H1388       H  0.81955123  0.02849362  0.46342795     0.15700
C1389       C  0.72715713  0.06494887  0.55631395    -0.13900
C1390       C  0.72108249  0.03469816  0.57230213    -0.29000
H1391       H  0.70551603  0.07277205  0.55523300     0.15200
H1392       H  0.74134032  0.02492014  0.57112351     0.15700
C1393       C  0.93562027  0.28862582  0.44456625    -0.13900
C1394       C  0.96019189  0.28434373  0.42433592    -0.29000
H1395       H  0.93425531  0.31408796  0.44420510     0.15200
H1396       H  0.96229013  0.25926250  0.42376959     0.15700
C1397       C  0.71847866  0.15353915  0.43496091    -0.13900
C1398       C  0.70644452  0.17602843  0.42334338    -0.29000
H1399       H  0.70268694  0.12468885  0.43047860     0.15200
H1400       H  0.72145892  0.20478302  0.42878738     0.15700
C1401       C  0.84707799  0.26362710  0.56585310    -0.13900
C1402       C  0.83197735  0.28629582  0.56890868    -0.29000
H1403       H  0.86322721  0.26190181  0.58638206     0.15200
H1404       H  0.81630290  0.28708837  0.54742380     0.15700
C1405       C  0.71168694  0.03378868  0.92426563    -0.13900
C1406       C  0.70628801  0.05707310  0.94540035    -0.29000
H1407       H  0.73847450  0.03546603  0.92074023     0.15200
H1408       H  0.67973689  0.05640599  0.94589891     0.15700
C1409       C  0.72842651  0.14270757  0.06789894    -0.13900
C1410       C  0.70471324  0.15674801  0.07063261    -0.29000
H1411       H  0.73084176  0.12699880  0.08836365     0.15200
H1412       H  0.70359364  0.17238875  0.04942344     0.15700
C1413       C  0.92138662  0.18383693  0.92682117    -0.13900
C1414       C  0.95400513  0.18387705  0.92809091    -0.29000
H1415       H  0.90907468  0.18212014  0.90217583     0.15200
H1416       H  0.96697569  0.18829433  0.95283437     0.15700
C1417       C  0.82868751  0.05266528  0.04538437    -0.13900
C1418       C  0.85767499  0.04658989  0.04837831    -0.29000
H1419       H  0.80379160  0.03608606  0.05924491     0.15200
H1420       H  0.88293656  0.06455644  0.03580718     0.15700
C1421       C  0.93326936  0.27308086  0.05443331    -0.13900
C1422       C  0.96596872  0.27897630  0.06578817    -0.29000
H1423       H  0.92424110  0.29365035  0.05888987     0.15200
H1424       H  0.97616212  0.25967079  0.05902154     0.15700
C1425       C  0.85037265  0.30569703  0.93909689    -0.13900
C1426       C  0.81911631  0.27646027  0.94519317    -0.29000
H1427       H  0.87555882  0.30565796  0.94597098     0.15200
H1428       H  0.79398946  0.27559782  0.93679788     0.15700
O1429       O  0.85974738  0.60969799  0.03214051    -0.78300
O1430       O  0.84709455  0.73984827  0.96976599    -0.63000
O1431       O  0.84102669  0.66687077  0.03057187    -1.09600
C1432       C  0.73591980  0.59093832  0.97052107     1.08600
O1433       O  0.78758662  0.72183907  0.96960498    -0.76200
O1434       O  0.75484024  0.67469262  0.01987627    -0.63800
Ni1435     Ni  0.88305071  0.66132005  0.04132780     1.34900
C1436       C  0.75342921  0.65348733  0.04307381     0.87300
O1437       O  0.88501245  0.74126162  0.02496168    -0.76800
O1438       O  0.91013955  0.71201620  0.05279715    -0.87000
C1439       C  0.81985663  0.74499992  0.96334469     0.86900
O1440       O  0.90463180  0.66836098  0.99652741    -0.65200
O1441       O  0.73156057  0.61924905  0.97183915    -0.84500
C1442       C  0.90075828  0.68237329  0.96953254     0.87700
C1443       C  0.90838436  0.74075765  0.04523903     1.09300
H1444       H  0.81360893  0.66058882  0.95431290     0.41100
O1445       O  0.80598413  0.66512253  0.97688788    -1.07200
O1446       O  0.76764677  0.63214101  0.03913882    -0.63800
Ni1447     Ni  0.80235737  0.62808321  0.00676779     1.26300
O1448       O  0.87911068  0.69642397  0.96789683    -0.64100
O1449       O  0.76446034  0.59034384  0.98080880    -0.76400
C1450       C  0.82813524  0.58718859  0.04192466     0.87100
O1451       O  0.80109616  0.59272741  0.03716236    -0.63500
Ni1452     Ni  0.76272716  0.67034812  0.97203039     1.27400
Ni1453     Ni  0.84580167  0.70370539  0.00001301     1.26100
H1454       H  0.83182117  0.67166403  0.05222225     0.41600
O1455       O  0.77301803  0.69529200  0.45803107    -0.78300
O1456       O  0.90989336  0.69547049  0.52950472    -0.63000
O1457       O  0.83599501  0.68550621  0.46737567    -1.09600
C1458       C  0.76392463  0.58563600  0.53741802     1.08600
O1459       O  0.89475646  0.63738289  0.52438431    -0.76200
O1460       O  0.83524683  0.58749725  0.49185456    -0.63800
Ni1461     Ni  0.82503762  0.72508537  0.46232190     1.34900
C1462       C  0.82380999  0.59185630  0.46338179     0.87300
O1463       O  0.90921081  0.73108991  0.47280324    -0.76800
O1464       O  0.87555709  0.75952958  0.46335781    -0.87000
C1465       C  0.91609404  0.66898925  0.53532822     0.86900
O1466       O  0.81979945  0.73255964  0.51043790    -0.65200
O1467       O  0.79302246  0.58638435  0.54833469    -0.84500
C1468       C  0.84262280  0.73674997  0.53340105     0.87700
C1469       C  0.90560864  0.75804806  0.46270875     1.09300
H1470       H  0.82970978  0.66218839  0.54298250     0.41100
O1471       O  0.83596797  0.65299630  0.52205092    -1.07200
O1472       O  0.81135733  0.61420282  0.45951542    -0.63800
Ni1473     Ni  0.79955773  0.64488989  0.48977053     1.26300
O1474       O  0.86642005  0.72551571  0.52951336    -0.64100
O1475       O  0.76312948  0.60513789  0.51345857    -0.76400
C1476       C  0.75413138  0.66191385  0.45050934     0.87100
O1477       O  0.76438018  0.63859353  0.45715185    -0.63500
Ni1478     Ni  0.84346365  0.61302653  0.53520344     1.27400
Ni1479     Ni  0.87353839  0.69203325  0.49826119     1.26100
H1480       H  0.84167672  0.67864683  0.44489508     0.41600
O1481       O  0.89780541  0.53096878  0.71365059    -0.71900
O1482       O  0.85312765  0.96920295  0.78851645    -0.71900
O1483       O  0.88853647  0.54417438  0.78138049    -0.71900
O1484       O  0.85363602  0.96327941  0.71775922    -0.72000
O1485       O  0.89933925  0.94917640  0.72010566    -0.71900
O1486       O  0.94009037  0.54242225  0.79264685    -0.71900
O1487       O  0.89906438  0.95526692  0.78895124    -0.71900
O1488       O  0.94850620  0.52753725  0.72507310    -0.71900
Ni1489     Ni  0.87261475  0.50130068  0.75227499     1.25400
Ni1490     Ni  0.92766896  0.49942237  0.76504796     1.25400
C1491       C  0.93094655  0.53882533  0.70656337     0.90300
C1492       C  0.86858486  0.95167787  0.80098276     0.90200
C1493       C  0.91883214  0.55702989  0.79692790     0.90300
C1494       C  0.86872610  0.94341874  0.70811542     0.90400
O1495       O  0.57721845  0.54024794  0.72822120    -0.71900
O1496       O  0.54515062  0.59417117  0.78965686    -0.71900
O1497       O  0.54691969  0.58570394  0.72100880    -0.71900
O1498       O  0.57464029  0.54878517  0.79694629    -0.72000
O1499       O  0.63089931  0.59337802  0.79337480    -0.71900
O1500       O  0.60150050  0.63321029  0.71981280    -0.71900
O1501       O  0.60111399  0.63955018  0.79004814    -0.71900
O1502       O  0.63162754  0.58771209  0.72391384    -0.71900
Ni1503     Ni  0.55903471  0.56560306  0.75894821     1.25400
Ni1504     Ni  0.61825694  0.61526597  0.75673249     1.25400
C1505       C  0.60967604  0.55500831  0.71614753     0.90300
C1506       C  0.56806303  0.62546841  0.80045272     0.90200
C1507       C  0.56934702  0.61573447  0.70821636     0.90300
C1508       C  0.60738892  0.56427134  0.80702126     0.90400
O1509       O  0.53465369  0.94389821  0.79011852    -0.71900
O1510       O  0.96921666  0.92393464  0.71763559    -0.71900
O1511       O  0.96490836  0.91318410  0.78647233    -0.71900
O1512       O  0.54115191  0.95844810  0.72344433    -0.72000
O1513       O  0.54062507  0.90578112  0.70926334    -0.71900
O1514       O  0.97005881  0.86241237  0.77847434    -0.71900
O1515       O  0.97132289  0.87163658  0.70929845    -0.71900
O1516       O  0.53715612  0.89245713  0.77721464    -0.71900
Ni1517     Ni  0.50137961  0.93668593  0.75480565     1.25400
Ni1518     Ni  0.50199632  0.88046438  0.74169780     1.25400
C1519       C  0.54755989  0.92179741  0.79506104     0.90300
C1520       C  0.95872041  0.89351908  0.70179253     0.90200
C1521       C  0.95570984  0.88044455  0.79413437     0.90300
C1522       C  0.55449638  0.94010573  0.70685104     0.90400
C1523       C  0.51418762  0.66175791  0.59120012     0.04800
C1524       C  0.97884081  0.64768173  0.58886989     0.04800
C1525       C  0.95756385  0.62550267  0.61550648    -0.15700
C1526       C  0.97305620  0.61700922  0.64317341     0.04800
C1527       C  0.50708645  0.63181290  0.64617745     0.04800
C1528       C  0.52897324  0.65424918  0.62001738    -0.15700
H1529       H  0.55810066  0.66641618  0.62169439     0.06900
H1530       H  0.92831770  0.61330987  0.61387203     0.06900
C1531       C  0.68933152  0.51771593  0.59482907     0.04800
C1532       C  0.66770611  0.97608646  0.58791393     0.04800
C1533       C  0.63687061  0.95708045  0.60858269    -0.15700
C1534       C  0.62439427  0.97498198  0.63263161     0.04800
C1535       C  0.64698746  0.52033526  0.63876263     0.04800
C1536       C  0.67860092  0.53730818  0.61864614    -0.15700
H1537       H  0.69544773  0.56609301  0.62191563     0.06900
H1538       H  0.62184487  0.92806087  0.60533263     0.06900
C1539       C  0.83153393  0.84984023  0.91759102     0.04800
C1540       C  0.85719444  0.83573105  0.91797096     0.04800
C1541       C  0.88511635  0.84659591  0.89309533    -0.15700
C1542       C  0.88670009  0.86882424  0.86643549     0.04800
C1543       C  0.85955504  0.88004114  0.86372080     0.04800
C1544       C  0.83319640  0.87182829  0.88988363    -0.15700
H1545       H  0.81428536  0.88289326  0.88827395     0.06900
H1546       H  0.90561712  0.83730660  0.89420333     0.06900
C1547       C  0.83620496  0.80621379  0.59825928     0.04800
C1548       C  0.81331269  0.82280521  0.60408755     0.04800
C1549       C  0.82131700  0.84920913  0.63063861    -0.15700
C1550       C  0.85148634  0.85913914  0.65186593     0.04800
C1551       C  0.87444468  0.84237921  0.64587926     0.04800
C1552       C  0.86646294  0.81633502  0.61938285    -0.15700
H1553       H  0.88511929  0.80502872  0.61462684     0.06900
H1554       H  0.80294389  0.86082837  0.63570245     0.06900
C1555       C  0.65690857  0.97717513  0.90498255     0.04800
C1556       C  0.68477664  0.51501540  0.90758907     0.04800
C1557       C  0.68180112  0.53651309  0.88206391    -0.15700
C1558       C  0.65570807  0.52174845  0.85647577     0.04800
C1559       C  0.62303111  0.97946715  0.85614064     0.04800
C1560       C  0.62726245  0.96083551  0.88324408    -0.15700
H1561       H  0.60638412  0.93382821  0.88838361     0.06900
H1562       H  0.69860634  0.56545479  0.88332932     0.06900
C1563       C  0.97310835  0.67165291  0.91137493     0.04800
C1564       C  0.50768846  0.69063871  0.90414812     0.04800
C1565       C  0.52467213  0.68042328  0.87713491    -0.15700
C1566       C  0.50466452  0.65287783  0.85318394     0.04800
C1567       C  0.97176370  0.62871054  0.86570743     0.04800
C1568       C  0.95368386  0.64203282  0.88894038    -0.15700
H1569       H  0.92448529  0.62750460  0.89138538     0.06900
H1570       H  0.55375215  0.69521302  0.87400249     0.06900
O1571       O  0.60612489  0.86048608  0.47210939    -0.78300
O1572       O  0.73113955  0.84964110  0.54042412    -0.63000
O1573       O  0.66145829  0.83964899  0.47474256    -1.09600
C1574       C  0.58148167  0.74202915  0.54087875     1.08600
O1575       O  0.71446262  0.79105308  0.54540511    -0.76200
O1576       O  0.66350000  0.75008617  0.49641169    -0.63800
Ni1577     Ni  0.65721622  0.88153140  0.46145563     1.34900
C1578       C  0.64328785  0.74798545  0.47157988     0.87300
O1579       O  0.73584554  0.88282191  0.48178929    -0.76800
O1580       O  0.70784537  0.90613335  0.44953874    -0.87000
C1581       C  0.73656780  0.82421557  0.55107416     0.86900
O1582       O  0.66570762  0.90697140  0.50443335    -0.65200
O1583       O  0.60940899  0.73707670  0.54492318    -0.84500
C1584       C  0.67793581  0.90319271  0.53257358     0.87700
C1585       C  0.73620858  0.90468930  0.45942482     1.09300
H1586       H  0.65253237  0.81834262  0.55272153     0.41100
O1587       O  0.65747558  0.80859979  0.53145446    -1.07200
O1588       O  0.62502906  0.76574087  0.47133313    -0.63800
Ni1589     Ni  0.62160924  0.80371673  0.49927672     1.26300
O1590       O  0.69003194  0.88055675  0.53642750    -0.64100
O1591       O  0.58266660  0.76903358  0.52571352    -0.76400
C1592       C  0.58300195  0.82954734  0.46180589     0.87100
O1593       O  0.58735985  0.80186848  0.46659571    -0.63500
Ni1594     Ni  0.66165228  0.76626207  0.54285710     1.27400
Ni1595     Ni  0.69703740  0.84575580  0.50734553     1.26100
H1596       H  0.66625110  0.82888910  0.45405533     0.41600
O1597       O  0.70064052  0.77592483  0.03732451    -0.78300
O1598       O  0.70139011  0.90588064  0.96325564    -0.63000
O1599       O  0.68640438  0.83491213  0.02898572    -1.09600
C1600       C  0.58792827  0.76095298  0.95664686     1.08600
O1601       O  0.64342453  0.89256392  0.96699305    -0.76200
O1602       O  0.59408849  0.83707173  0.00272150    -0.63800
Ni1603     Ni  0.72564979  0.82749313  0.04480603     1.34900
C1604       C  0.59514817  0.82167949  0.02983529     0.87300
O1605       O  0.73326688  0.90884602  0.02284966    -0.76800
O1606       O  0.75228962  0.87791466  0.05617119    -0.87000
C1607       C  0.67570170  0.91323383  0.95724588     0.86900
O1608       O  0.75174410  0.83290270  0.00186862    -0.65200
O1609       O  0.58753912  0.79027865  0.94864574    -0.84500
C1610       C  0.75089403  0.84736282  0.97390406     0.87700
C1611       C  0.75266336  0.90709252  0.04678679     1.09300
H1612       H  0.66669350  0.82714886  0.95093874     0.41100
O1613       O  0.65704732  0.83305646  0.97177695    -1.07200
O1614       O  0.61411787  0.80513707  0.03240902    -0.63800
Ni1615     Ni  0.64839158  0.79674554  0.00394322     1.26300
O1616       O  0.73026435  0.86194524  0.96945407    -0.64100
O1617       O  0.61050032  0.75961011  0.97742311    -0.76400
C1618       C  0.66800479  0.75619631  0.04672651     0.87100
O1619       O  0.64250468  0.76212401  0.03686916    -0.63500
Ni1620     Ni  0.61709658  0.84103743  0.95879937     1.27400
Ni1621     Ni  0.69554533  0.87118911  0.99647687     1.26100
H1622       H  0.67621751  0.84109643  0.04928063     0.41600
O1623       O  0.95510909  0.62335074  0.21760970    -0.71900
O1624       O  0.52723248  0.64595490  0.29013869    -0.71900
O1625       O  0.53487091  0.64271389  0.22073562    -0.71900
O1626       O  0.95298444  0.62291381  0.28789073    -0.72000
O1627       O  0.95648981  0.57101736  0.28418211    -0.71900
O1628       O  0.52725960  0.58626717  0.22308347    -0.71900
O1629       O  0.52189400  0.59035154  0.29294408    -0.71900
O1630       O  0.96253395  0.57356860  0.21541973    -0.71900
Ni1631     Ni  0.99053172  0.64445921  0.25334697     1.25400
Ni1632     Ni  0.99588122  0.58972380  0.25186943     1.25400
C1633       C  0.94729752  0.59193705  0.20474409     0.90300
C1634       C  0.53545237  0.62331363  0.30385294     0.90200
C1635       C  0.54390293  0.61796304  0.21118001     0.90300
C1636       C  0.94211952  0.59030035  0.29708103     0.90400
O1637       O  0.92755955  0.95763006  0.28389087    -0.71900
O1638       O  0.95500082  0.90442919  0.21795347    -0.71900
O1639       O  0.93601599  0.95815727  0.21443967    -0.71900
O1640       O  0.94666279  0.90439925  0.28652867    -0.72000
O1641       O  0.88977691  0.86197170  0.28016416    -0.71900
O1642       O  0.87762304  0.91891609  0.21040140    -0.71900
O1643       O  0.89710618  0.86487445  0.21061658    -0.71900
O1644       O  0.86993874  0.91605071  0.28015852    -0.71900
Ni1645     Ni  0.94326460  0.93260586  0.25085460     1.25400
Ni1646     Ni  0.88141260  0.88897603  0.24517782     1.25400
C1647       C  0.89443691  0.94519424  0.29351667     0.90300
C1648       C  0.93072912  0.87607852  0.20336476     0.90200
C1649       C  0.90521668  0.94754231  0.20047515     0.90300
C1650       C  0.92047844  0.87417917  0.29488505     0.90400
C1651       C  0.80874301  0.98135137  0.40670945     0.04800
C1652       C  0.83033486  0.51855574  0.40461886     0.04800
C1653       C  0.85684765  0.53712810  0.37948327    -0.15700
C1654       C  0.86501513  0.51873618  0.35211006     0.04800
C1655       C  0.84302889  0.98096133  0.35467700     0.04800
C1656       C  0.81700977  0.96270874  0.37997045    -0.15700
H1657       H  0.80274294  0.93352092  0.37851817     0.06900
H1658       H  0.87125362  0.56609326  0.38190735     0.06900
O1659       O  0.62230092  0.95665363  0.28598158    -0.71900
O1660       O  0.64860305  0.53145786  0.21757222    -0.71900
O1661       O  0.63946452  0.52176254  0.28685270    -0.71900
O1662       O  0.62535915  0.95740906  0.21599321    -0.72000
O1663       O  0.57128713  0.95654783  0.21500741    -0.71900
O1664       O  0.58987631  0.52979279  0.28643010    -0.71900
O1665       O  0.60082689  0.54263017  0.21919759    -0.71900
O1666       O  0.56769431  0.95458704  0.28426722    -0.71900
Ni1667     Ni  0.64144771  0.99391629  0.25253433     1.25400
Ni1668     Ni  0.58313822  0.99208047  0.25130148     1.25400
C1669       C  0.58904074  0.94288583  0.29559401     0.90300
C1670       C  0.63318538  0.55060647  0.20921340     0.90200
C1671       C  0.62039075  0.53663569  0.29945089     0.90300
C1672       C  0.59352698  0.94503134  0.20349097     0.90400
C1673       C  0.85046830  0.52155483  0.08813114     0.04800
C1674       C  0.83519150  0.98796833  0.08145347     0.04800
C1675       C  0.84003457  0.97043133  0.10979746    -0.15700
C1676       C  0.86818213  0.98809504  0.13304236     0.04800
C1677       C  0.88202376  0.52151992  0.14032950     0.04800
C1678       C  0.87640678  0.53989209  0.11343557    -0.15700
H1679       H  0.89273193  0.56876486  0.11166079     0.06900
H1680       H  0.82252532  0.94198149  0.11322163     0.06900
C1681       C  0.66929200  0.65567133  0.40654909     0.04800
C1682       C  0.64479951  0.67042430  0.41322425     0.04800
C1683       C  0.61244160  0.65644585  0.39452733    -0.15700
C1684       C  0.60451158  0.62886800  0.36937638     0.04800
C1685       C  0.62925180  0.61469063  0.36219224     0.04800
C1686       C  0.66129736  0.62818558  0.38097737    -0.15700
H1687       H  0.68098594  0.61850766  0.37451897     0.06900
H1688       H  0.59261230  0.66616582  0.40008950     0.06900
C1689       C  0.68742136  0.66659414  0.10842890     0.04800
C1690       C  0.67259459  0.69113872  0.11104224     0.04800
C1691       C  0.64668972  0.68732162  0.13670103    -0.15700
C1692       C  0.63444807  0.65910206  0.15975857     0.04800
C1693       C  0.65072728  0.63537151  0.15889339     0.04800
C1694       C  0.67657714  0.63919908  0.13270417    -0.15700
H1695       H  0.68726921  0.62001717  0.13017050     0.06900
H1696       H  0.63514675  0.70607309  0.13813562     0.06900
C1697       C  0.97935985  0.81311813  0.40012436     0.04800
C1698       C  0.52040036  0.82099585  0.39076171     0.04800
C1699       C  0.53866610  0.84551696  0.36461196    -0.15700
C1700       C  0.52101770  0.86115446  0.34618317     0.04800
C1701       C  0.97491679  0.85108704  0.35613597     0.04800
C1702       C  0.95900091  0.82615260  0.38201879    -0.15700
H1703       H  0.93076364  0.81763419  0.38859882     0.06900
H1704       H  0.56703650  0.85328573  0.35953347     0.06900
C1705       C  0.52586702  0.83406915  0.08915051     0.04800
C1706       C  0.98848695  0.81354440  0.09590179     0.04800
C1707       C  0.97238633  0.82232233  0.12454114    -0.15700
C1708       C  0.99286858  0.85091331  0.14738265     0.04800
C1709       C  0.53036786  0.87370000  0.13870607     0.04800
C1710       C  0.54673515  0.86307747  0.11160596    -0.15700
H1711       H  0.57548855  0.87882099  0.10669577     0.06900
H1712       H  0.94383870  0.80577197  0.12972956     0.06900
C1713       C  0.54012749  0.88818039  0.31910895    -0.13900
C1714       C  0.57495379  0.91310366  0.32017974    -0.29000
H1715       H  0.52382540  0.88960594  0.29844140     0.15200
H1716       H  0.59284060  0.91247176  0.33961029     0.15700
C1717       C  0.58139916  0.91608231  0.17627180    -0.13900
C1718       C  0.55104595  0.90794803  0.15873125    -0.29000
H1719       H  0.59548061  0.89965222  0.17272306     0.15200
H1720       H  0.53760450  0.92493474  0.16293768     0.15700
C1721       C  0.63362043  0.56288506  0.32889833    -0.13900
C1722       C  0.62225295  0.58849205  0.33256078    -0.29000
H1723       H  0.65186689  0.56096305  0.34716076     0.15200
H1724       H  0.60536960  0.58969443  0.31237431     0.15700
C1725       C  0.65205336  0.58170156  0.18670733    -0.13900
C1726       C  0.63980322  0.60656771  0.18491863    -0.29000
H1727       H  0.67432742  0.58259849  0.17086963     0.15200
H1728       H  0.61981345  0.60508701  0.20412286     0.15700
C1729       C  0.92719137  0.85280379  0.32064348    -0.13900
C1730       C  0.95515095  0.86941611  0.34196971    -0.29000
H1731       H  0.91293046  0.82358170  0.31878134     0.15200
H1732       H  0.96910821  0.89871254  0.34308227     0.15700
C1733       C  0.97509178  0.85889478  0.17777328    -0.13900
C1734       C  0.94197486  0.85707177  0.17689027    -0.29000
H1735       H  0.99123006  0.87061702  0.20052670     0.15200
H1736       H  0.92444448  0.84484028  0.15512297     0.15700
C1737       C  0.88523866  0.96531257  0.32054324    -0.13900
C1738       C  0.85110439  0.95861858  0.32855341    -0.29000
H1739       H  0.90754300  0.98734573  0.33358817     0.15200
H1740       H  0.82861670  0.93552093  0.31693460     0.15700
C1741       C  0.87089502  0.96621302  0.16139307    -0.13900
C1742       C  0.90252788  0.96896601  0.17226050    -0.29000
H1743       H  0.84584069  0.94588179  0.17238610     0.15200
H1744       H  0.92769218  0.98806088  0.16045170     0.15700
C1745       C  0.91334155  0.57478098  0.32369801    -0.13900
C1746       C  0.89144208  0.53895014  0.32401077    -0.29000
H1747       H  0.91161610  0.59304786  0.34328727     0.15200
H1748       H  0.89332425  0.52362447  0.30165458     0.15700
C1749       C  0.90932047  0.54140159  0.16710725    -0.13900
C1750       C  0.92014921  0.57597438  0.17736763    -0.29000
H1751       H  0.92058133  0.52653312  0.18023533     0.15200
H1752       H  0.90856955  0.59203609  0.16662499     0.15700
C1753       C  0.57034206  0.61477330  0.34987735    -0.13900
C1754       C  0.56226988  0.63668228  0.33157371    -0.29000
H1755       H  0.55521496  0.58579320  0.34575386     0.15200
H1756       H  0.57798949  0.66568279  0.33501599     0.15700
C1757       C  0.60412374  0.65542515  0.18377046    -0.13900
C1758       C  0.57328912  0.62447275  0.18567914    -0.29000
H1759       H  0.60668003  0.67888639  0.19886962     0.15200
H1760       H  0.57091326  0.60143529  0.16993167     0.15700
C1761       C  0.65865182  0.72578461  0.06951158    -0.13900
C1762       C  0.68351085  0.72084116  0.08658791    -0.29000
H1763       H  0.63011072  0.70798745  0.07400468     0.15200
H1764       H  0.71215635  0.73782765  0.08177749     0.15700
C1765       C  0.57464717  0.82416606  0.06052879    -0.13900
C1766       C  0.54366219  0.82671903  0.05838819    -0.29000
H1767       H  0.58543617  0.82417238  0.08561460     0.15200
H1768       H  0.53121230  0.82373205  0.03355692     0.15700
C1769       C  0.77494243  0.93944636  0.06750960    -0.13900
C1770       C  0.80638102  0.96612375  0.05637587    -0.32000
H1771       H  0.76899999  0.93722007  0.09492956     0.15200
H1772       H  0.81282850  0.96886446  0.02906317     0.15700
C1773       C  0.65170615  0.69815784  0.44158074    -0.13900
C1774       C  0.63929768  0.72308126  0.44178226    -0.29000
H1775       H  0.66725964  0.69774243  0.46333717     0.15200
H1776       H  0.62418001  0.72434107  0.42004625     0.15700
C1777       C  0.55100988  0.82676384  0.44436758    -0.13900
C1778       C  0.54218786  0.81092751  0.41318610    -0.29000
H1779       H  0.53931915  0.84419573  0.45367022     0.15200
H1780       H  0.55722666  0.79753908  0.40167019     0.15700
C1781       C  0.77116489  0.92858636  0.44283164    -0.13900
C1782       C  0.77763154  0.96074243  0.43024956    -0.29000
H1783       H  0.79143332  0.91893401  0.43963945     0.15200
H1784       H  0.75852688  0.97150937  0.43584619     0.15700
C1785       C  0.56207772  0.72681687  0.93961367    -0.13900
C1786       C  0.53026893  0.72210276  0.92690540    -0.29000
H1787       H  0.56998145  0.70531308  0.93641397     0.15200
H1788       H  0.52099779  0.74235541  0.93234874     0.15700
C1789       C  0.65700425  0.95594513  0.93436088    -0.13900
C1790       C  0.68314475  0.94595808  0.93824847    -0.29000
H1791       H  0.63134116  0.94165265  0.94798014     0.15200
H1792       H  0.70842375  0.95901621  0.92379550     0.15700
C1793       C  0.77020538  0.83468899  0.57047437    -0.13900
C1794       C  0.77969690  0.81098659  0.58379655    -0.29000
H1795       H  0.78766209  0.86333258  0.57449129     0.15200
H1796       H  0.76329565  0.78233917  0.57873050     0.15700
C1797       C  0.77471443  0.84799708  0.94442247    -0.13900
C1798       C  0.80515733  0.84403568  0.94699716    -0.29000
H1799       H  0.76719332  0.85363887  0.91980589     0.15200
H1800       H  0.81172005  0.83764514  0.97181524     0.15700
C1801       C  0.67634736  0.95690697  0.55909862    -0.13900
C1802       C  0.67655340  0.92505926  0.56269212    -0.29000
H1803       H  0.68135065  0.96884569  0.53391383     0.15200
H1804       H  0.67422725  0.91424039  0.58812761     0.15700
C1805       C  0.54056378  0.68277923  0.56419679    -0.13900
C1806       C  0.54634052  0.71598203  0.55590744    -0.29000
H1807       H  0.56111956  0.67425406  0.55709721     0.15200
H1808       H  0.52674212  0.72554311  0.56358403     0.15700
C1809       C  0.92825384  0.86343805  0.82158992    -0.13900
C1810       C  0.91857579  0.88375545  0.84289734    -0.29000
H1811       H  0.91525174  0.83432075  0.82374204     0.15200
H1812       H  0.93140546  0.91279791  0.83995856     0.15700
C1813       C  0.57617582  0.93152064  0.82058487    -0.13900
C1814       C  0.58885999  0.96359042  0.83718053    -0.29000
H1815       H  0.58928520  0.91432813  0.82319018     0.15200
H1816       H  0.57630631  0.98110657  0.83344179     0.15700
C1817       C  0.59151152  0.95238895  0.65350371    -0.13900
C1818       C  0.58782293  0.95986714  0.68674648    -0.29000
H1819       H  0.57381664  0.47751059  0.65739355     0.15200
H1820       H  0.60930675  0.98268235  0.69968473     0.15700
C1821       C  0.90671772  0.85052207  0.66725358    -0.13900
C1822       C  0.93117791  0.88444203  0.67510444    -0.29000
H1823       H  0.90988004  0.82805159  0.67709815     0.15200
H1824       H  0.92827006  0.90672510  0.66444878     0.15700
C1825       C  0.55617383  0.64475578  0.82627382    -0.13900
C1826       C  0.52348923  0.64381021  0.82400733    -0.29000
H1827       H  0.57295318  0.65665566  0.84855906     0.15200
H1828       H  0.50856034  0.63260934  0.80051640     0.15700
C1829       C  0.61745147  0.54675743  0.83392004    -0.13900
C1830       C  0.64995657  0.54703709  0.83448149    -0.29000
H1831       H  0.59578210  0.52831460  0.85037783     0.15200
H1832       H  0.67208178  0.56503116  0.81822562     0.15700
C1833       C  0.62199102  0.53311695  0.69418811    -0.13900
C1834       C  0.63753483  0.54364097  0.66305644    -0.29000
H1835       H  0.61666009  0.50705359  0.70374870     0.15200
H1836       H  0.64402832  0.57067349  0.65507609     0.15700
C1837       C  0.55800701  0.62980473  0.67909335    -0.13900
C1838       C  0.52348724  0.62434657  0.67687820    -0.29000
H1839       H  0.57800829  0.64316915  0.65920677     0.15200
H1840       H  0.50599244  0.61263036  0.69898195     0.15700
C1841       C  0.92988571  0.58930741  0.82006360    -0.13900
C1842       C  0.95127443  0.59377796  0.84694005    -0.29000
H1843       H  0.92200740  0.61003437  0.81417168     0.15200
H1844       H  0.95816503  0.57228571  0.85258968     0.15700
C1845       C  0.85253185  0.92738373  0.83029876    -0.13900
C1846       C  0.85911646  0.89871562  0.83193926    -0.29000
H1847       H  0.84061830  0.93567167  0.85187628     0.15200
H1848       H  0.87022983  0.89158919  0.80891461     0.15700
C1849       C  0.94797232  0.59126257  0.66891020    -0.13900
C1850       C  0.95017991  0.56112301  0.67683845    -0.29000
H1851       H  0.92748312  0.59728577  0.68137730     0.15200
H1852       H  0.97061695  0.55530826  0.66392297     0.15700
C1853       C  0.85158462  0.91403045  0.68195836    -0.13900
C1854       C  0.85831613  0.88522206  0.68150176    -0.29000
H1855       H  0.83620112  0.91766429  0.66174230     0.15200
H1856       H  0.87254198  0.88240430  0.70322663     0.15700
C1857       C  0.94741507  0.67474304  0.55661184    -0.13900
C1858       C  0.95938685  0.64978082  0.55841691    -0.29000
H1859       H  0.95810987  0.69805902  0.57404305     0.15200
H1860       H  0.94812248  0.62609106  0.54149273     0.15700
C1861       C  0.82573455  0.57080411  0.43278332    -0.13900
C1862       C  0.82544180  0.53857603  0.43508705    -0.29000
H1863       H  0.82679822  0.58182541  0.40767170     0.15200
H1864       H  0.82127051  0.52627297  0.46002772     0.15700
C1865       C  0.72889616  0.56267884  0.55406853    -0.13900
C1866       C  0.72406663  0.53671831  0.57587616    -0.29000
H1867       H  0.70622279  0.56813684  0.54901827     0.15200
H1868       H  0.74552729  0.52922453  0.57998231     0.15700
C1869       C  0.93639090  0.78939204  0.44822658    -0.13900
C1870       C  0.96098206  0.78618289  0.42712324    -0.29000
H1871       H  0.93402192  0.81435821  0.44853513     0.15200
H1872       H  0.96399647  0.76157858  0.42628401     0.15700
C1873       C  0.71874136  0.64873496  0.43390871    -0.13900
C1874       C  0.70441032  0.67023423  0.42472437    -0.29000
H1875       H  0.70395079  0.61988024  0.42885134     0.15200
H1876       H  0.71838624  0.69888147  0.43102296     0.15700
C1877       C  0.84323704  0.75663504  0.56571880    -0.13900
C1878       C  0.83038338  0.78107844  0.56800784    -0.29000
H1879       H  0.85721663  0.75292680  0.58712920     0.15200
H1880       H  0.81644213  0.78396117  0.54605756     0.15700
C1881       C  0.71043429  0.53358736  0.93592111    -0.13900
C1882       C  0.70592678  0.55877509  0.95507286    -0.29000
H1883       H  0.73590845  0.53211758  0.93598471     0.15200
H1884       H  0.68047199  0.56012903  0.95293236     0.15700
C1885       C  0.73345342  0.65258242  0.07556484    -0.13900
C1886       C  0.71096353  0.66791802  0.07801120    -0.29000
H1887       H  0.73649612  0.63820916  0.09689076     0.15200
H1888       H  0.70895418  0.68172776  0.05568038     0.15700
C1889       C  0.92174768  0.68088111  0.93830005    -0.13900
C1890       C  0.95378828  0.67999436  0.94073765    -0.29000
H1891       H  0.91027381  0.67921914  0.91321810     0.15200
H1892       H  0.96611120  0.68439860  0.96581721     0.15700
C1893       C  0.82266381  0.55431672  0.05980022    -0.13900
C1894       C  0.84861644  0.54359569  0.06016592    -0.29000
H1895       H  0.79860003  0.54104410  0.07590874     0.15200
H1896       H  0.87319093  0.55786565  0.04499038     0.15700
C1897       C  0.93363095  0.77524321  0.06214578    -0.13900
C1898       C  0.96603032  0.78113292  0.07424019    -0.29000
H1899       H  0.92495575  0.79618629  0.06550717     0.15200
H1900       H  0.97611554  0.76150782  0.06875699     0.15700
C1901       C  0.85500169  0.80749340  0.94171800    -0.13900
C1902       C  0.82364212  0.77806400  0.94702086    -0.29000
H1903       H  0.87996363  0.80790429  0.95003659     0.15200
H1904       H  0.79903596  0.77698622  0.93689566     0.15700
loop_ 
_geom_bond_atom_site_label_1 
_geom_bond_atom_site_label_2 
_geom_bond_distance 
_geom_bond_site_symmetry_2 
_ccdc_geom_bond_type 
O1           Ni7   1.931       .  S
O1           C22   1.271       .  A
O2          Ni25   1.930       .  S
O2           C11   1.274       .  A
O3           Ni7   1.910       .  S
O3          Ni25   1.911   1_554  S
O3          Ni19   1.923       .  S
O3           H26   0.966       .  S
C4           O21   1.280       .  A
C4           O13   1.274       .  A
C4          C454   1.470       .  S
O5          Ni24   1.912       .  S
O5           C11   1.264       .  A
O6          Ni24   1.892   1_554  S
O6            C8   1.266       .  A
Ni7          O10   1.922       .  S
Ni7          O12   1.901   1_554  S
C8           O18   1.271       .  A
C8          C457   1.480       .  S
O9          Ni25   1.939   1_554  S
O9           C15   1.283       .  A
O10          C15   1.276       .  A
C11         C474   1.476       .  S
O12          C14   1.269       .  A
O13         Ni24   1.907       .  S
C14          O20   1.274       .  A
C14         C461   1.477       .  S
C15         C469   1.484       .  S
H16          O17   0.966       .  S
O17         Ni25   1.925       .  S
O17         Ni19   1.909   1_556  S
O17         Ni24   1.903       .  S
O18         Ni19   1.934       .  S
Ni19         O23   1.909       .  S
Ni19         O21   1.939   1_554  S
O20         Ni25   1.939       .  S
C22          O23   1.266       .  A
C22         C465   1.477       .  S
O27         Ni33   1.943       .  S
O27          C48   1.274       .  A
O28         Ni51   1.925       .  S
O28          C37   1.272       .  A
O29         Ni33   1.919       .  S
O29         Ni51   1.912       .  S
O29         Ni45   1.903       .  S
O29          H52   0.967       .  S
C30          O47   1.269       .  A
C30          O39   1.278       .  A
C30         C437   1.473       .  S
O31         Ni50   1.935       .  S
O31          C37   1.274       .  A
O32         Ni50   1.913       .  S
O32          C34   1.270       .  A
Ni33         O36   1.931       .  S
Ni33         O38   1.907       .  S
C34          O44   1.268       .  A
C34         C433   1.473       .  S
O35         Ni51   1.919       .  S
O35          C41   1.276       .  A
O36          C41   1.274       .  A
C37         C429   1.489       .  S
O38          C40   1.270       .  A
O39         Ni50   1.935       .  S
C40          O46   1.274       .  A
C40         C449   1.473       .  S
C41         C441   1.473       .  S
H42          O43   0.966       .  S
O43         Ni51   1.915       .  S
O43         Ni45   1.898       .  S
O43         Ni50   1.918       .  S
O44         Ni45   1.920       .  S
Ni45         O49   1.884       .  S
Ni45         O47   1.903       .  S
O46         Ni51   1.937       .  S
C48          O49   1.261       .  A
C48         C445   1.471       .  S
O53         Ni61   1.930       .  S
O53          C63   1.283       .  A
O54        Ni537   1.940       .  S
O54          C64   1.284       .  A
O55         Ni61   1.931       .  S
O55          C65   1.284       .  A
O56        Ni537   1.937       .  S
O56          C66   1.284       .  A
O57        Ni538   1.915       .  S
O57          C66   1.281       .  A
O58         Ni62   1.912   1_545  S
O58          C65   1.279       .  A
O59        Ni538   1.891       .  S
O59          C64   1.278       .  A
O60         Ni62   1.913   1_545  S
O60          C63   1.280       .  A
Ni61        O530   1.935   1_545  S
Ni61        O532   1.940   1_545  S
Ni61        Ni62   2.389   1_545  S
Ni62        O533   1.904       .  S
Ni62        O535   1.901       .  S
C63         C422   1.477       .  S
C64         C417   1.480       .  S
C65         C413   1.477       .  S
C66         C425   1.485       .  S
O67         Ni75   1.921       .  S
O67          C77   1.283       .  A
O68         Ni75   1.927       .  S
O68          C78   1.284       .  A
O69         Ni75   1.887       .  S
O69          C79   1.276       .  A
O70         Ni75   1.899       .  S
O70          C80   1.276       .  A
O71         Ni76   1.928       .  S
O71          C80   1.283       .  A
O72         Ni76   1.932       .  S
O72          C79   1.284       .  A
O73         Ni76   1.921       .  S
O73          C78   1.280       .  A
O74         Ni76   1.917       .  S
O74          C77   1.280       .  A
Ni75        Ni76   2.391       .  S
C77         C405   1.477       .  S
C78         C397   1.480       .  S
C79         C409   1.469       .  S
C80         C401   1.461       .  S
O81         Ni89   1.902       .  S
O81          C91   1.280       .  A
O82       Ni1041   1.898       .  S
O82          C92   1.275       .  A
O83       Ni1041   1.930       .  S
O83          C93   1.286       .  A
O84         Ni89   1.903       .  S
O84          C94   1.277       .  A
O85         Ni90   1.930       .  S
O85          C94   1.283       .  A
O86       Ni1042   1.912       .  S
O86          C93   1.278       .  A
O87       Ni1042   1.943       .  S
O87          C92   1.287       .  A
O88         Ni90   1.926       .  S
O88          C91   1.282       .  A
Ni89       O1034   1.916   1_455  S
Ni89       O1035   1.904   1_455  S
Ni89        Ni90   2.389       .  S
Ni90       O1038   1.928   1_455  S
Ni90       O1039   1.928   1_455  S
C91         C385   1.476       .  S
C92         C394   1.475       .  S
C93         C381   1.480       .  S
C94         C390   1.465       .  S
C95         C377   1.480       .  S
C95         C100   1.400       .  A
C95        C1048   1.410   1_455  A
C96         C430   1.486       .  S
C96          C97   1.408       .  A
C96        C1047   1.415       .  A
C97          C98   1.407       .  A
C97         H102   1.085       .  S
C98         C421   1.492       .  S
C98        C1051   1.424       .  A
C99         C410   1.492       .  S
C99         C100   1.409       .  A
C99        C1050   1.424   1_455  A
C100        H101   1.080       .  S
C103        C438   1.484       .  S
C103        C108   1.404       .  A
C103        C580   1.407   1_545  A
C104        C373   1.481       .  S
C104        C105   1.404       .  A
C104        C579   1.407       .  A
C105        C106   1.403       .  A
C105        H110   1.085       .  S
C106        C389   1.491       .  S
C106        C583   1.425       .  A
C107        C406   1.488       .  S
C107        C108   1.406       .  A
C107        C582   1.422   1_545  A
C108        H109   1.083       .  S
C111        C370   1.507       .  S
C111        C112   1.431       .  A
C111        C116   1.419       .  A
C112        C473   1.491       .  S
C112        C113   1.406       .  A
C113        C114   1.397       .  A
C113        H118   1.085       .  S
C114        C382   1.487       .  S
C114        C115   1.409       .  A
C115        C418   1.488       .  S
C115        C116   1.403       .  A
C116        H117   1.079       .  S
C119        C450   1.498       .  S
C119        C120   1.415       .  A
C119        C124   1.409       .  A
C120        C366   1.494       .  S
C120        C121   1.413       .  A
C121        C122   1.413       .  A
C121        H126   1.082       .  S
C122        C426   1.501       .  S
C122        C123   1.423       .  A
C123        C393   1.493       .  S
C123        C124   1.399       .  A
C124        H125   1.081       .  S
C127        C361   1.474       .  S
C127        C132   1.401       .  A
C127        C604   1.411       .  A
C128        C453   1.488       .  S
C128        C129   1.407       .  A
C128        C603   1.410   1_545  A
C129        C130   1.397       .  A
C129        H134   1.085       .  S
C130        C402   1.485       .  S
C130        C607   1.419   1_545  A
C131        C386   1.477       .  S
C131        C132   1.397       .  A
C131        C606   1.414       .  A
C132        H133   1.085       .  S
C135        C462   1.486       .  S
C135        C140   1.406       .  A
C135       C1088   1.411       .  A
C136        C358   1.493       .  S
C136        C137   1.410       .  A
C136       C1087   1.419   1_455  A
C137        C138   1.408       .  A
C137        H142   1.082       .  S
C138        C398   1.503       .  S
C138       C1091   1.423   1_455  A
C139        C414   1.492       .  S
C139        C140   1.405       .  A
C139       C1090   1.425       .  A
C140        H141   1.084       .  S
O143       Ni149   1.911       .  S
O143        C164   1.262       .  A
O144       Ni167   1.895       .  S
O144        C153   1.266       .  A
O145       Ni149   1.913       .  S
O145       Ni167   1.894       .  S
O145       Ni161   1.913       .  S
O145        H168   0.967       .  S
C146        O163   1.270       .  A
C146        O155   1.280       .  A
C146        C378   1.482       .  S
O147       Ni166   1.956       .  S
O147        C153   1.281       .  A
O148       Ni166   1.917       .  S
O148        C150   1.274       .  A
Ni149       O152   1.912       .  S
Ni149       O154   1.900       .  S
C150        O160   1.278       .  A
C150        C346   1.490       .  S
O151       Ni167   1.940       .  S
O151        C157   1.281       .  A
O152        C157   1.276       .  A
C153        C365   1.484       .  S
O154        C156   1.265       .  A
O155       Ni166   1.950       .  S
C156        O162   1.267       .  A
C156        C374   1.475       .  S
C157        C353   1.480       .  S
H158        O159   0.966       .  S
O159       Ni167   1.921       .  S
O159       Ni161   1.911       .  S
O159       Ni166   1.913       .  S
O160       Ni161   1.948       .  S
Ni161       O165   1.922       .  S
Ni161       O163   1.909       .  S
O162       Ni167   1.926       .  S
C164        O165   1.268       .  A
C164        C349   1.465       .  S
O169       Ni175   1.933       .  S
O169        C190   1.276       .  A
O170       Ni193   1.911       .  S
O170        C179   1.268       .  A
O171       Ni175   1.909       .  S
O171       Ni193   1.906   1_554  S
O171       Ni187   1.916   1_554  S
O171        H194   0.966       .  S
C172        O189   1.278       .  A
C172        O181   1.279       .  A
C172        C357   1.482       .  S
O173       Ni192   1.933       .  S
O173        C179   1.274       .  A
O174       Ni192   1.911       .  S
O174        C176   1.267   1_556  A
Ni175       O178   1.917       .  S
Ni175       O180   1.928       .  S
C176        O186   1.267       .  A
C176        C337   1.477       .  S
O177       Ni193   1.928   1_554  S
O177        C183   1.275       .  A
O178        C183   1.275       .  A
C179        C362   1.480       .  S
O180        C182   1.274   1_554  A
O181       Ni192   1.934       .  S
C182        O188   1.275       .  A
C182        C369   1.486       .  S
C183        C341   1.467       .  S
H184        O185   0.966       .  S
O185       Ni193   1.918       .  S
O185       Ni187   1.898       .  S
O185       Ni192   1.917       .  S
O186       Ni187   1.924   1_554  S
Ni187       O191   1.895   1_556  S
Ni187       O189   1.924       .  S
O188       Ni193   1.931       .  S
C190        O191   1.264       .  A
C190        C333   1.473       .  S
O195       Ni203   1.928       .  S
O195        C205   1.281       .  A
O196      Ni1155   1.917   1_455  S
O196        C206   1.279       .  A
O197      Ni1155   1.939   1_455  S
O197        C207   1.285       .  A
O198       Ni203   1.936       .  S
O198        C208   1.284       .  A
O199       Ni204   1.908       .  S
O199        C208   1.280       .  A
O200      Ni1156   1.914   1_455  S
O200        C207   1.279       .  A
O201      Ni1156   1.918   1_455  S
O201        C206   1.283       .  A
O202       Ni204   1.909       .  S
O202        C205   1.281       .  A
Ni203      O1148   1.923       .  S
Ni203      O1149   1.932       .  S
Ni203      Ni204   2.388       .  S
Ni204      O1152   1.918       .  S
Ni204      O1153   1.913       .  S
C205        C322   1.476       .  S
C206        C326   1.473       .  S
C207        C330   1.480       .  S
C208        C317   1.482       .  S
O209       Ni217   1.910       .  S
O209        C219   1.279       .  A
O210       Ni217   1.908       .  S
O210        C220   1.282       .  A
O211       Ni217   1.907       .  S
O211        C221   1.278       .  A
O212       Ni217   1.903       .  S
O212        C222   1.280       .  A
O213       Ni218   1.924       .  S
O213        C222   1.281       .  A
O214       Ni218   1.920       .  S
O214        C221   1.282       .  A
O215       Ni218   1.918       .  S
O215        C220   1.279       .  A
O216       Ni218   1.918       .  S
O216        C219   1.282       .  A
Ni217      Ni218   2.391       .  S
C219        C309   1.470       .  S
C220        C306   1.476       .  S
C221        C314   1.468       .  S
C222        C301   1.474       .  S
C223        C354   1.489       .  S
C223        C228   1.400       .  A
C223        C700   1.412       .  A
C224        C434   1.485       .  S
C224        C225   1.412       .  A
C224        C699   1.412   1_545  A
C225        C226   1.409       .  A
C225        H230   1.079       .  S
C226        C318   1.502       .  S
C226        C703   1.422   1_545  A
C227        C310   1.483       .  S
C227        C228   1.400       .  A
C227        C702   1.424       .  A
C228        H229   1.084       .  S
O231       Ni239   1.922       .  S
O231        C241   1.280       .  A
O232       Ni715   1.919   1_545  S
O232        C242   1.281       .  A
O233       Ni715   1.939   1_545  S
O233        C243   1.285       .  A
O234       Ni239   1.945       .  S
O234        C244   1.286       .  A
O235       Ni240   1.912       .  S
O235        C244   1.279       .  A
O236       Ni716   1.908   1_545  S
O236        C243   1.281       .  A
O237       Ni716   1.911   1_545  S
O237        C242   1.278       .  A
O238       Ni240   1.915       .  S
O238        C241   1.280       .  A
Ni239       O708   1.926       .  S
Ni239       O709   1.943       .  S
Ni239      Ni240   2.388       .  S
Ni240       O712   1.925       .  S
Ni240       O713   1.904       .  S
C241        C286   1.468       .  S
C242        C297   1.465       .  S
C243        C293   1.490       .  S
C244        C289   1.484       .  S
C245        C466   1.475       .  S
C245        C250   1.410       .  A
C245        C722   1.412   1_545  A
C246        C342   1.494       .  S
C246        C247   1.409       .  A
C246        C721   1.416       .  A
C247        C248   1.393       .  A
C247        H252   1.085       .  S
C248        C313   1.485       .  S
C248        C725   1.413       .  A
C249        C321   1.493       .  S
C249        C250   1.409       .  A
C249        C724   1.418   1_545  A
C250        H251   1.083       .  S
C253        C446   1.489       .  S
C253        C254   1.421       .  A
C253        C258   1.415       .  A
C254        C345   1.507       .  S
C254        C255   1.411       .  A
C255        C256   1.406       .  A
C255        H260   1.081       .  S
C256        C325   1.479       .  S
C256        C257   1.415       .  A
C257        C294   1.503       .  S
C257        C258   1.401       .  A
C258        H259   1.081       .  S
C261        C458   1.488       .  S
C261        C262   1.408       .  A
C261        C266   1.402       .  A
C262        C334   1.484       .  S
C262        C263   1.406       .  A
C263        C264   1.405       .  A
C263        H268   1.085       .  S
C264        C329   1.498       .  S
C264        C265   1.431       .  A
C265        C298   1.488       .  S
C265        C266   1.407       .  A
C266        H267   1.084       .  S
C269        C442   1.490       .  S
C269        C274   1.408       .  A
C269       C1222   1.406       .  A
C270        C350   1.478       .  S
C270        C271   1.407       .  A
C270       C1221   1.404   1_455  A
C271        C272   1.401       .  A
C271        H276   1.085       .  S
C272        C285   1.497       .  S
C272       C1225   1.422   1_455  A
C273        C302   1.478       .  S
C273        C274   1.405       .  A
C273       C1224   1.421       .  A
C274        H275   1.083       .  S
C277        C338   1.487       .  S
C277        C282   1.410       .  A
C277       C1230   1.415   1_455  A
C278        C470   1.493       .  S
C278        C279   1.405       .  A
C278       C1229   1.418       .  A
C279        C280   1.411       .  A
C279        H284   1.080       .  S
C280        C305   1.496       .  S
C280       C1233   1.421       .  A
C281        C290   1.501       .  S
C281        C282   1.403       .  A
C281       C1232   1.422   1_455  A
C282        H283   1.084       .  S
C285        C286   1.343       .  D
C285        H287   1.087       .  S
C286        H288   1.083       .  S
C289        C290   1.348       .  D
C289        H291   1.087       .  S
C290        H292   1.086       .  S
C293        C294   1.352       .  D
C293        H295   1.084       .  S
C294        H296   1.083       .  S
C297        C298   1.337       .  D
C297        H299   1.084       .  S
C298        H300   1.088       .  S
C301        C302   1.343       .  D
C301        H303   1.086       .  S
C302        H304   1.087       .  S
C305        C306   1.345       .  D
C305        H307   1.080       .  S
C306        H308   1.083       .  S
C309        C310   1.343       .  D
C309        H311   1.087       .  S
C310        H312   1.087       .  S
C313        C314   1.342       .  D
C313        H315   1.087       .  S
C314        H316   1.087       .  S
C317        C318   1.350       .  D
C317        H319   1.083       .  S
C318        H320   1.084       .  S
C321        C322   1.345       .  D
C321        H323   1.086       .  S
C322        H324   1.084       .  S
C325        C326   1.340       .  D
C325        H327   1.086       .  S
C326        H328   1.087       .  S
C329        C330   1.344       .  D
C329        H331   1.087       .  S
C330        H332   1.086       .  S
C333        C334   1.339       .  D
C333        H335   1.087       .  S
C334        H336   1.087       .  S
C337        C338   1.344       .  D
C337        H339   1.087       .  S
C338        H340   1.087       .  S
C341        C342   1.348       .  D
C341        H343   1.087       .  S
C342        H344   1.086       .  S
C345        C346   1.353       .  D
C345        H347   1.086       .  S
C346        H348   1.084       .  S
C349        C350   1.338       .  D
C349        H351   1.089       .  S
C350        H352   1.086       .  S
C353        C354   1.349       .  D
C353        H355   1.086       .  S
C354        H356   1.087       .  S
C357        C358   1.350       .  D
C357        H359   1.087       .  S
C358        H360   1.087       .  S
C361        C362   1.343       .  D
C361        H363   1.087       .  S
C362        H364   1.086       .  S
C365        C366   1.344       .  D
C365        H367   1.087       .  S
C366        H368   1.086       .  S
C369        C370   1.355       .  D
C369        H371   1.084       .  S
C370        H372   1.086       .  S
C373        C374   1.343       .  D
C373        H375   1.087       .  S
C374        H376   1.087       .  S
C377        C378   1.342       .  D
C377        H379   1.087       .  S
C378        H380   1.087       .  S
C381        C382   1.341       .  D
C381        H383   1.087       .  S
C382        H384   1.087       .  S
C385        C386   1.342       .  D
C385        H387   1.086       .  S
C386        H388   1.087       .  S
C389        C390   1.340       .  D
C389        H867   1.087       .  S
C390        H392   1.085       .  S
H391        C865   1.087       .  S
C393        C394   1.340       .  D
C393        H395   1.087       .  S
C394        H396   1.087       .  S
C397        C398   1.349       .  D
C397        H399   1.084       .  S
C398        H400   1.086       .  S
C401        C402   1.335       .  D
C401        H403   1.086       .  S
C402        H404   1.087       .  S
C405        C406   1.344       .  D
C405        H407   1.086       .  S
C406        H408   1.086       .  S
C409        C410   1.351       .  D
C409        H411   1.081       .  S
C410        H412   1.084       .  S
C413        C414   1.344       .  D
C413        H415   1.087       .  S
C414        H416   1.087       .  S
C417        C418   1.345       .  D
C417        H419   1.085       .  S
C418        H420   1.088       .  S
C421        C422   1.346       .  D
C421        H423   1.086       .  S
C422        H424   1.087       .  S
C425        C426   1.349       .  D
C425        H427   1.084       .  S
C426        H428   1.085       .  S
C429        C430   1.347       .  D
C429        H431   1.086       .  S
C430        H432   1.086       .  S
C433        C434   1.343       .  D
C433        H435   1.086       .  S
C434        H436   1.087       .  S
C437        C438   1.339       .  D
C437        H439   1.088       .  S
C438        H440   1.087       .  S
C441        C442   1.343       .  D
C441        H443   1.087       .  S
C442        H444   1.086       .  S
C445        C446   1.343       .  D
C445        H447   1.086       .  S
C446        H448   1.086       .  S
C449        C450   1.347       .  D
C449        H451   1.083       .  S
C450        H452   1.086       .  S
C453        C454   1.342       .  D
C453        H455   1.086       .  S
C454        H456   1.089       .  S
C457        C458   1.348       .  D
C457        H459   1.086       .  S
C458        H460   1.086       .  S
C461        C462   1.347       .  D
C461        H463   1.086       .  S
C462        H464   1.088       .  S
C465        C466   1.342       .  D
C465        H467   1.087       .  S
C466        H468   1.086       .  S
C469        C470   1.343       .  D
C469        H471   1.087       .  S
C470        H472   1.087       .  S
C473        C474   1.338       .  D
C473        H475   1.087       .  S
C474        H476   1.086       .  S
O477       Ni483   1.942       .  S
O477        C498   1.275       .  A
O478       Ni501   1.923       .  S
O478        C487   1.273       .  A
O479       Ni483   1.917       .  S
O479       Ni501   1.912   1_554  S
O479       Ni495   1.924       .  S
O479        H502   0.966       .  S
C480        O497   1.278       .  A
C480        O489   1.272       .  A
C480        C930   1.470       .  S
O481       Ni500   1.915       .  S
O481        C487   1.264       .  A
O482       Ni500   1.894   1_554  S
O482        C484   1.266       .  A
Ni483       O486   1.936       .  S
Ni483       O488   1.905   1_554  S
C484        O494   1.271       .  A
C484        C933   1.479       .  S
O485       Ni501   1.925   1_554  S
O485        C491   1.276       .  A
O486        C491   1.278       .  A
C487        C950   1.474       .  S
O488        C490   1.269       .  A
O489       Ni500   1.908       .  S
C490        O496   1.276       .  A
C490        C937   1.484       .  S
C491        C945   1.486       .  S
H492        O493   0.966       .  S
O493       Ni501   1.915       .  S
O493       Ni495   1.911   1_556  S
O493       Ni500   1.912       .  S
O494       Ni495   1.934       .  S
Ni495       O499   1.909       .  S
Ni495       O497   1.936   1_554  S
O496       Ni501   1.944       .  S
C498        O499   1.267       .  A
C498        C941   1.483       .  S
O503       Ni509   1.946       .  S
O503        C524   1.276       .  A
O504       Ni527   1.924       .  S
O504        C513   1.271       .  A
O505       Ni509   1.918       .  S
O505       Ni527   1.915       .  S
O505       Ni521   1.912       .  S
O505        H528   0.966       .  S
C506        O523   1.271       .  A
C506        O515   1.278       .  A
C506        C913   1.476       .  S
O507       Ni526   1.937       .  S
O507        C513   1.273       .  A
O508       Ni526   1.910       .  S
O508        C510   1.269       .  A
Ni509       O512   1.933       .  S
Ni509       O514   1.910       .  S
C510        O520   1.268       .  A
C510        C909   1.476       .  S
O511       Ni527   1.916       .  S
O511        C517   1.273       .  A
O512        C517   1.273       .  A
C513        C905   1.488       .  S
O514        C516   1.273       .  A
O515       Ni526   1.934       .  S
C516        O522   1.277       .  A
C516        C925   1.475       .  S
C517        C917   1.470       .  S
H518        O519   0.966       .  S
O519       Ni527   1.909       .  S
O519       Ni521   1.902       .  S
O519       Ni526   1.918       .  S
O520       Ni521   1.921       .  S
Ni521       O525   1.895       .  S
Ni521       O523   1.909       .  S
O522       Ni527   1.943       .  S
C524        O525   1.263       .  A
C524        C921   1.482       .  S
O529       Ni537   1.937       .  S
O529        C539   1.285       .  A
O530        C540   1.282       .  A
O531       Ni537   1.932       .  S
O531        C541   1.283       .  A
O532        C542   1.285       .  A
O533        C542   1.279       .  A
O534       Ni538   1.920       .  S
O534        C541   1.282       .  A
O535        C540   1.280       .  A
O536       Ni538   1.903       .  S
O536        C539   1.277       .  A
Ni537      Ni538   2.388       .  S
C539        C898   1.473       .  S
C540        C893   1.478       .  S
C541        C889   1.482       .  S
C542        C901   1.482       .  S
O543       Ni551   1.917       .  S
O543        C553   1.282       .  A
O544       Ni551   1.917       .  S
O544        C554   1.282       .  A
O545       Ni551   1.910       .  S
O545        C555   1.281       .  A
O546       Ni551   1.915       .  S
O546        C556   1.282       .  A
O547       Ni552   1.931       .  S
O547        C556   1.282       .  A
O548       Ni552   1.928       .  S
O548        C555   1.283       .  A
O549       Ni552   1.925       .  S
O549        C554   1.282       .  A
O550       Ni552   1.926       .  S
O550        C553   1.282       .  A
Ni551      Ni552   2.387       .  S
C553        C881   1.480       .  S
C554        C873   1.483       .  S
C555        C885   1.480       .  S
C556        C877   1.484       .  S
O557       Ni565   1.899       .  S
O557        C567   1.278       .  A
O558      Ni1517   1.913       .  S
O558        C568   1.279       .  A
O559      Ni1517   1.907       .  S
O559        C569   1.281       .  A
O560       Ni565   1.908       .  S
O560        C570   1.278       .  A
O561       Ni566   1.925       .  S
O561        C570   1.282       .  A
O562      Ni1518   1.926       .  S
O562        C569   1.281       .  A
O563      Ni1518   1.924       .  S
O563        C568   1.283       .  A
O564       Ni566   1.934       .  S
O564        C567   1.284       .  A
Ni565      O1510   1.911   1_455  S
Ni565      O1511   1.912   1_455  S
Ni565      Ni566   2.389       .  S
Ni566      O1514   1.925   1_455  S
Ni566      O1515   1.935   1_455  S
C567        C861   1.477       .  S
C568        C870   1.475       .  S
C569        C857   1.478       .  S
C570        C866   1.465       .  S
C571        C853   1.489       .  S
C571       C1524   1.414   1_455  A
C571        C576   1.406       .  A
C572        C906   1.485       .  S
C572       C1523   1.416       .  A
C572        C573   1.407       .  A
C573        C574   1.404       .  A
C573        H578   1.085       .  S
C574        C897   1.491       .  S
C574       C1527   1.423       .  A
C575        C886   1.504       .  S
C575       C1526   1.425   1_455  A
C575        C576   1.411       .  A
C576        H577   1.080       .  S
C579        C914   1.484       .  S
C579        C584   1.405       .  A
C580        C849   1.479       .  S
C580        C581   1.405       .  A
C581        C582   1.402       .  A
C581        H586   1.084       .  S
C582        C865   1.493       .  S
C583        C882   1.493       .  S
C583        C584   1.409       .  A
C584        H585   1.083       .  S
C587        C846   1.503       .  S
C587        C588   1.430       .  A
C587        C592   1.418       .  A
C588        C949   1.487       .  S
C588        C589   1.403       .  A
C589        C590   1.393       .  A
C589        H594   1.085       .  S
C590        C858   1.478       .  S
C590        C591   1.407       .  A
C591        C894   1.485       .  S
C591        C592   1.401       .  A
C592        H593   1.079       .  S
C595        C926   1.496       .  S
C595        C596   1.414       .  A
C595        C600   1.408       .  A
C596        C842   1.487       .  S
C596        C597   1.411       .  A
C597        C598   1.407       .  A
C597        H602   1.083       .  S
C598        C902   1.492       .  S
C598        C599   1.421       .  A
C599        C869   1.491       .  S
C599        C600   1.401       .  A
C600        H601   1.082       .  S
C603        C837   1.468       .  S
C603        C608   1.401       .  A
C604        C929   1.485       .  S
C604        C605   1.414       .  A
C605        C606   1.406       .  A
C605        H610   1.083       .  S
C606        C878   1.498       .  S
C607        C862   1.485       .  S
C607        C608   1.400       .  A
C608        H609   1.085       .  S
C611        C938   1.490       .  S
C611       C1564   1.416       .  A
C611        C616   1.412       .  A
C612        C834   1.494       .  S
C612       C1563   1.419   1_455  A
C612        C613   1.408       .  A
C613        C614   1.406       .  A
C613        H618   1.080       .  S
C614        C874   1.503       .  S
C614       C1567   1.418   1_455  A
C615        C890   1.503       .  S
C615       C1566   1.422       .  A
C615        C616   1.409       .  A
C616        H617   1.084       .  S
O619       Ni625   1.931       .  S
O619        C640   1.269       .  A
O620       Ni643   1.889       .  S
O620        C629   1.263       .  A
O621       Ni625   1.920       .  S
O621       Ni643   1.898       .  S
O621       Ni637   1.908       .  S
O621        H644   0.967       .  S
C622        O639   1.270       .  A
C622        O631   1.277       .  A
C622        C854   1.490       .  S
O623       Ni642   1.946       .  S
O623        C629   1.277       .  A
O624       Ni642   1.911       .  S
O624        C626   1.273       .  A
Ni625       O628   1.927       .  S
Ni625       O630   1.902       .  S
C626        O636   1.278       .  A
C626        C822   1.480       .  S
O627       Ni643   1.923       .  S
O627        C633   1.276       .  A
O628        C633   1.277       .  A
C629        C841   1.477       .  S
O630        C632   1.267       .  A
O631       Ni642   1.945       .  S
C632        O638   1.266       .  A
C632        C850   1.469       .  S
C633        C829   1.479       .  S
H634        O635   0.966       .  S
O635       Ni643   1.924       .  S
O635       Ni637   1.913       .  S
O635       Ni642   1.921       .  S
O636       Ni637   1.943       .  S
Ni637       O641   1.914       .  S
Ni637       O639   1.915       .  S
O638       Ni643   1.919       .  S
C640        O641   1.268       .  A
C640        C825   1.469       .  S
O645       Ni651   1.949       .  S
O645        C666   1.278       .  A
O646       Ni669   1.897       .  S
O646        C655   1.262       .  A
O647       Ni651   1.924       .  S
O647       Ni669   1.906   1_554  S
O647       Ni663   1.922       .  S
O647        H670   0.966       .  S
C648        O665   1.277       .  A
C648        O657   1.277       .  A
C648        C833   1.482       .  S
O649       Ni668   1.937       .  S
O649        C655   1.274       .  A
O650       Ni668   1.909   1_554  S
O650        C652   1.267       .  A
Ni651       O654   1.944       .  S
Ni651       O656   1.911   1_554  S
C652        O662   1.265       .  A
C652        C813   1.470       .  S
O653       Ni669   1.902   1_554  S
O653        C659   1.265       .  A
O654        C659   1.277       .  A
C655        C838   1.473       .  S
O656        C658   1.272       .  A
O657       Ni668   1.930       .  S
C658        O664   1.277       .  A
C658        C845   1.479       .  S
C659        C817   1.479       .  S
H660        O661   0.966       .  S
O661       Ni669   1.904       .  S
O661       Ni663   1.896   1_556  S
O661       Ni668   1.924       .  S
O662       Ni663   1.916       .  S
Ni663       O667   1.885       .  S
Ni663       O665   1.924   1_554  S
O664       Ni669   1.941       .  S
C666        O667   1.263       .  A
C666        C809   1.475       .  S
O671       Ni679   1.919       .  S
O671        C681   1.278       .  A
O672      Ni1631   1.930   1_455  S
O672        C682   1.283       .  A
O673      Ni1631   1.932   1_455  S
O673        C683   1.282       .  A
O674       Ni679   1.949       .  S
O674        C684   1.287       .  A
O675       Ni680   1.900       .  S
O675        C684   1.278       .  A
O676      Ni1632   1.912   1_455  S
O676        C683   1.282       .  A
O677      Ni1632   1.894   1_455  S
O677        C682   1.278       .  A
O678       Ni680   1.919       .  S
O678        C681   1.284       .  A
Ni679      O1624   1.907       .  S
Ni679      O1625   1.944       .  S
Ni679      Ni680   2.389       .  S
Ni680      O1628   1.909       .  S
Ni680      O1629   1.931       .  S
C681        C798   1.473       .  S
C682        C802   1.474       .  S
C683        C806   1.482       .  S
C684        C793   1.486       .  S
O685       Ni693   1.912       .  S
O685        C695   1.279       .  A
O686       Ni693   1.911       .  S
O686        C696   1.283       .  A
O687       Ni693   1.903       .  S
O687        C697   1.276       .  A
O688       Ni693   1.893       .  S
O688        C698   1.279       .  A
O689       Ni694   1.930       .  S
O689        C698   1.282       .  A
O690       Ni694   1.919       .  S
O690        C697   1.283       .  A
O691       Ni694   1.918       .  S
O691        C696   1.279       .  A
O692       Ni694   1.916       .  S
O692        C695   1.282       .  A
Ni693      Ni694   2.391       .  S
C695        C785   1.469       .  S
C696        C782   1.472       .  S
C697        C790   1.466       .  S
C698        C777   1.475       .  S
C699        C830   1.489       .  S
C699        C704   1.401       .  A
C700        C910   1.484       .  S
C700        C701   1.413       .  A
C701        C702   1.409       .  A
C701        H706   1.081       .  S
C702        C794   1.501       .  S
C703        C786   1.482       .  S
C703        C704   1.399       .  A
C704        H705   1.085       .  S
O707       Ni715   1.921       .  S
O707        C717   1.279       .  A
O708        C718   1.281       .  A
O709        C719   1.285       .  A
O710       Ni715   1.942       .  S
O710        C720   1.286       .  A
O711       Ni716   1.914       .  S
O711        C720   1.279       .  A
O712        C719   1.283       .  A
O713        C718   1.280       .  A
O714       Ni716   1.914       .  S
O714        C717   1.283       .  A
Ni715      Ni716   2.386       .  S
C717        C762   1.476       .  S
C718        C773   1.476       .  S
C719        C769   1.497       .  S
C720        C765   1.483       .  S
C721        C942   1.478       .  S
C721        C726   1.409       .  A
C722        C818   1.477       .  S
C722        C723   1.395       .  A
C723        C724   1.393       .  A
C723        H728   1.086       .  S
C724        C789   1.477       .  S
C725        C797   1.489       .  S
C725        C726   1.407       .  A
C726        H727   1.083       .  S
C729        C922   1.491       .  S
C729        C730   1.419       .  A
C729        C734   1.420       .  A
C730        C821   1.502       .  S
C730        C731   1.405       .  A
C731        C732   1.400       .  A
C731        H736   1.082       .  S
C732        C801   1.480       .  S
C732        C733   1.419       .  A
C733        C770   1.511       .  S
C733        C734   1.411       .  A
C734        H735   1.082       .  S
C737        C934   1.490       .  S
C737        C738   1.416       .  A
C737        C742   1.406       .  A
C738        C810   1.487       .  S
C738        C739   1.410       .  A
C739        C740   1.404       .  A
C739        H744   1.083       .  S
C740        C805   1.494       .  S
C740        C741   1.415       .  A
C741        C774   1.481       .  S
C741        C742   1.401       .  A
C742        H743   1.082       .  S
C745        C918   1.489       .  S
C745       C1698   1.411       .  A
C745        C750   1.407       .  A
C746        C826   1.480       .  S
C746       C1697   1.412   1_455  A
C746        C747   1.407       .  A
C747        C748   1.407       .  A
C747        H752   1.083       .  S
C748        C761   1.492       .  S
C748       C1701   1.413   1_455  A
C749        C778   1.476       .  S
C749       C1700   1.413       .  A
C749        C750   1.396       .  A
C750        H751   1.084       .  S
C753        C814   1.483       .  S
C753       C1706   1.413   1_455  A
C753        C758   1.411       .  A
C754        C946   1.494       .  S
C754       C1705   1.416       .  A
C754        C755   1.406       .  A
C755        C756   1.407       .  A
C755        H760   1.083       .  S
C756        C781   1.487       .  S
C756       C1709   1.415       .  A
C757        C766   1.501       .  S
C757       C1708   1.420   1_455  A
C757        C758   1.401       .  A
C758        H759   1.084       .  S
C761        C762   1.342       .  D
C761        H763   1.087       .  S
C762        H764   1.085       .  S
C765        C766   1.348       .  D
C765        H767   1.087       .  S
C766        H768   1.086       .  S
C769        C770   1.352       .  D
C769        H771   1.085       .  S
C770        H772   1.085       .  S
C773        C774   1.343       .  D
C773        H775   1.086       .  S
C774        H776   1.087       .  S
C777        C778   1.343       .  D
C777        H779   1.086       .  S
C778        H780   1.087       .  S
C781        C782   1.340       .  D
C781        H783   1.087       .  S
C782        H784   1.085       .  S
C785        C786   1.343       .  D
C785        H787   1.087       .  S
C786        H788   1.087       .  S
C789        C790   1.339       .  D
C789        H791   1.087       .  S
C790        H792   1.087       .  S
C793        C794   1.350       .  D
C793        H795   1.084       .  S
C794        H796   1.085       .  S
C797        C798   1.339       .  D
C797        H799   1.087       .  S
C798        H800   1.085       .  S
C801        C802   1.346       .  D
C801        H803   1.087       .  S
C802        H804   1.086       .  S
C805        C806   1.346       .  D
C805        H807   1.087       .  S
C806        H808   1.085       .  S
C809        C810   1.340       .  D
C809        H811   1.088       .  S
C810        H812   1.086       .  S
C813        C814   1.341       .  D
C813        H815   1.087       .  S
C814        H816   1.087       .  S
C817        C818   1.339       .  D
C817        H819   1.086       .  S
C818        H820   1.088       .  S
C821        C822   1.351       .  D
C821        H823   1.086       .  S
C822        H824   1.085       .  S
C825        C826   1.342       .  D
C825        H827   1.087       .  S
C826        H828   1.087       .  S
C829        C830   1.348       .  D
C829        H831   1.087       .  S
C830        H832   1.087       .  S
C833        C834   1.351       .  D
C833        H835   1.087       .  S
C834        H836   1.087       .  S
C837        C838   1.337       .  D
C837        H839   1.087       .  S
C838        H840   1.087       .  S
C841        C842   1.341       .  D
C841        H843   1.087       .  S
C842        H844   1.087       .  S
C845        C846   1.352       .  D
C845        H847   1.083       .  S
C846        H848   1.086       .  S
C849        C850   1.340       .  D
C849        H851   1.087       .  S
C850        H852   1.087       .  S
C853        C854   1.347       .  D
C853        H855   1.087       .  S
C854        H856   1.085       .  S
C857        C858   1.342       .  D
C857        H859   1.086       .  S
C858        H860   1.087       .  S
C861        C862   1.349       .  D
C861        H863   1.086       .  S
C862        H864   1.086       .  S
C865        C866   1.341       .  D
C866        H868   1.084       .  S
C869        C870   1.344       .  D
C869        H871   1.087       .  S
C870        H872   1.086       .  S
C873        C874   1.349       .  D
C873        H875   1.084       .  S
C874        H876   1.083       .  S
C877        C878   1.347       .  D
C877        H879   1.085       .  S
C878        H880   1.087       .  S
C881        C882   1.348       .  D
C881        H883   1.085       .  S
C882        H884   1.086       .  S
C885        C886   1.351       .  D
C885        H887   1.082       .  S
C886        H888   1.079       .  S
C889        C890   1.351       .  D
C889        H891   1.086       .  S
C890        H892   1.086       .  S
C893        C894   1.342       .  D
C893        H895   1.085       .  S
C894        H896   1.088       .  S
C897        C898   1.343       .  D
C897        H899   1.086       .  S
C898        H900   1.088       .  S
C901        C902   1.348       .  D
C901        H903   1.085       .  S
C902        H904   1.086       .  S
C905        C906   1.347       .  D
C905        H907   1.086       .  S
C906        H908   1.086       .  S
C909        C910   1.342       .  D
C909        H911   1.087       .  S
C910        H912   1.087       .  S
C913        C914   1.340       .  D
C913        H915   1.087       .  S
C914        H916   1.087       .  S
C917        C918   1.343       .  D
C917        H919   1.087       .  S
C918        H920   1.086       .  S
C921        C922   1.343       .  D
C921        H923   1.087       .  S
C922        H924   1.087       .  S
C925        C926   1.347       .  D
C925        H927   1.084       .  S
C926        H928   1.086       .  S
C929        C930   1.341       .  D
C929        H931   1.086       .  S
C930        H932   1.089       .  S
C933        C934   1.349       .  D
C933        H935   1.085       .  S
C934        H936   1.086       .  S
C937        C938   1.349       .  D
C937        H939   1.086       .  S
C938        H940   1.087       .  S
C941        C942   1.343       .  D
C941        H943   1.087       .  S
C942        H944   1.086       .  S
C945        C946   1.350       .  D
C945        H947   1.087       .  S
C946        H948   1.086       .  S
C949        C950   1.337       .  D
C949        H951   1.087       .  S
C950        H952   1.086       .  S
O953       Ni959   1.938       .  S
O953        C974   1.274       .  A
O954       Ni977   1.920       .  S
O954        C963   1.274       .  A
O955       Ni959   1.917       .  S
O955       Ni977   1.909   1_554  S
O955       Ni971   1.919   1_554  S
O955        H978   0.966       .  S
C956        O973   1.275       .  A
C956        O965   1.272       .  A
C956       C1406   1.470       .  S
O957       Ni976   1.920       .  S
O957        C963   1.267       .  A
O958       Ni976   1.895   1_554  S
O958        C960   1.267       .  A
Ni959       O962   1.931       .  S
Ni959       O964   1.907   1_554  S
C960        O970   1.276       .  A
C960       C1409   1.487       .  S
O961       Ni977   1.931   1_554  S
O961        C967   1.278       .  A
O962        C967   1.278       .  A
C963       C1426   1.476       .  S
O964        C966   1.269       .  A
O965       Ni976   1.919       .  S
C966        O972   1.278       .  A
C966       C1413   1.491       .  S
C967       C1421   1.486       .  S
H968        O969   0.966       .  S
O969       Ni977   1.919       .  S
O969       Ni971   1.914       .  S
O969       Ni976   1.916       .  S
O970       Ni971   1.950   1_554  S
Ni971       O975   1.913   1_556  S
Ni971       O973   1.924       .  S
O972       Ni977   1.953       .  S
C974        O975   1.268       .  A
C974       C1417   1.485       .  S
O979       Ni985   1.947       .  S
O979       C1000   1.277       .  A
O980      Ni1003   1.912       .  S
O980        C989   1.268       .  A
O981       Ni985   1.914       .  S
O981      Ni1003   1.906       .  S
O981       Ni997   1.901       .  S
O981       H1004   0.967       .  S
C982        O999   1.271       .  A
C982        O991   1.278       .  A
C982       C1389   1.473       .  S
O983      Ni1002   1.932       .  S
O983        C989   1.273       .  A
O984      Ni1002   1.911       .  S
O984        C986   1.268       .  A
Ni985       O988   1.927       .  S
Ni985       O990   1.917       .  S
C986        O996   1.269       .  A
C986       C1385   1.477       .  S
O987      Ni1003   1.916       .  S
O987        C993   1.275       .  A
O988        C993   1.274       .  A
C989       C1381   1.479       .  S
O990        C992   1.273       .  A
O991      Ni1002   1.932       .  S
C992        O998   1.275       .  A
C992       C1401   1.488       .  S
C993       C1393   1.466       .  S
H994        O995   0.966       .  S
O995      Ni1003   1.917       .  S
O995       Ni997   1.898       .  S
O995      Ni1002   1.918       .  S
O996       Ni997   1.925       .  S
Ni997      O1001   1.884       .  S
Ni997       O999   1.909       .  S
O998      Ni1003   1.942       .  S
C1000      O1001   1.261       .  A
C1000      C1397   1.473       .  S
O1005     Ni1013   1.937       .  S
O1005      C1015   1.285       .  A
O1006     Ni1489   1.940       .  S
O1006      C1016   1.284       .  A
O1007     Ni1013   1.927       .  S
O1007      C1017   1.283       .  A
O1008     Ni1489   1.945       .  S
O1008      C1018   1.286       .  A
O1009     Ni1490   1.917       .  S
O1009      C1018   1.279       .  A
O1010     Ni1014   1.914   1_545  S
O1010      C1017   1.280       .  A
O1011     Ni1490   1.901       .  S
O1011      C1016   1.279       .  A
O1012     Ni1014   1.913   1_545  S
O1012      C1015   1.279       .  A
Ni1013     O1482   1.941   1_545  S
Ni1013     O1484   1.939   1_545  S
Ni1013    Ni1014   2.388   1_545  S
Ni1014     O1485   1.911       .  S
Ni1014     O1487   1.900       .  S
C1015      C1374   1.482       .  S
C1016      C1369   1.477       .  S
C1017      C1365   1.474       .  S
C1018      C1377   1.486       .  S
O1019     Ni1027   1.912       .  S
O1019      C1029   1.281       .  A
O1020     Ni1027   1.912       .  S
O1020      C1030   1.280       .  A
O1021     Ni1027   1.913       .  S
O1021      C1031   1.281       .  A
O1022     Ni1027   1.921       .  S
O1022      C1032   1.284       .  A
O1023     Ni1028   1.922       .  S
O1023      C1032   1.279       .  A
O1024     Ni1028   1.925       .  S
O1024      C1031   1.282       .  A
O1025     Ni1028   1.923       .  S
O1025      C1030   1.281       .  A
O1026     Ni1028   1.926       .  S
O1026      C1029   1.282       .  A
Ni1027    Ni1028   2.390       .  S
C1029      C1357   1.477       .  S
C1030      C1349   1.472       .  S
C1031      C1361   1.478       .  S
C1032      C1353   1.479       .  S
O1033     Ni1041   1.897       .  S
O1033      C1043   1.278       .  A
O1034      C1044   1.279       .  A
O1035      C1045   1.281       .  A
O1036     Ni1041   1.924       .  S
O1036      C1046   1.284       .  A
O1037     Ni1042   1.916       .  S
O1037      C1046   1.279       .  A
O1038      C1045   1.282       .  A
O1039      C1044   1.284       .  A
O1040     Ni1042   1.941       .  S
O1040      C1043   1.286       .  A
Ni1041    Ni1042   2.388       .  S
C1043      C1337   1.484       .  S
C1044      C1346   1.478       .  S
C1045      C1333   1.478       .  S
C1046      C1342   1.476       .  S
C1047      C1329   1.486       .  S
C1047      C1052   1.405       .  A
C1048      C1382   1.474       .  S
C1048      C1049   1.403       .  A
C1049      C1050   1.399       .  A
C1049      H1054   1.085       .  S
C1050      C1373   1.494       .  S
C1051      C1362   1.507       .  S
C1051      C1052   1.409       .  A
C1052      H1053   1.079       .  S
C1055      C1390   1.485       .  S
C1055      C1532   1.408   1_545  A
C1055      C1060   1.404       .  A
C1056      C1325   1.488       .  S
C1056      C1531   1.408       .  A
C1056      C1057   1.407       .  A
C1057      C1058   1.411       .  A
C1057      H1062   1.084       .  S
C1058      C1341   1.484       .  S
C1058      C1535   1.422       .  A
C1059      C1358   1.489       .  S
C1059      C1534   1.424   1_545  A
C1059      C1060   1.405       .  A
C1060      H1061   1.083       .  S
C1063      C1322   1.504       .  S
C1063      C1064   1.428       .  A
C1063      C1068   1.421       .  A
C1064      C1425   1.487       .  S
C1064      C1065   1.402       .  A
C1065      C1066   1.395       .  A
C1065      H1070   1.085       .  S
C1066      C1334   1.481       .  S
C1066      C1067   1.410       .  A
C1067      C1370   1.491       .  S
C1067      C1068   1.404       .  A
C1068      H1069   1.080       .  S
C1071      C1402   1.508       .  S
C1071      C1072   1.414       .  A
C1071      C1076   1.413       .  A
C1072      C1318   1.492       .  S
C1072      C1073   1.411       .  A
C1073      C1074   1.405       .  A
C1073      H1078   1.084       .  S
C1074      C1378   1.506       .  S
C1074      C1075   1.429       .  A
C1075      C1345   1.491       .  S
C1075      C1076   1.413       .  A
C1076      H1077   1.081       .  S
C1079      C1313   1.474       .  S
C1079      C1556   1.411       .  A
C1079      C1084   1.405       .  A
C1080      C1405   1.479       .  S
C1080      C1555   1.412   1_545  A
C1080      C1081   1.411       .  A
C1081      C1082   1.406       .  A
C1081      H1086   1.084       .  S
C1082      C1354   1.491       .  S
C1082      C1559   1.411   1_545  A
C1083      C1338   1.500       .  S
C1083      C1558   1.422       .  A
C1083      C1084   1.405       .  A
C1084      H1085   1.081       .  S
C1087      C1414   1.498       .  S
C1087      C1092   1.410       .  A
C1088      C1310   1.488       .  S
C1088      C1089   1.404       .  A
C1089      C1090   1.409       .  A
C1089      H1094   1.081       .  S
C1090      C1350   1.497       .  S
C1091      C1366   1.492       .  S
C1091      C1092   1.408       .  A
C1092      H1093   1.084       .  S
O1095     Ni1101   1.923       .  S
O1095      C1116   1.268       .  A
O1096     Ni1119   1.881       .  S
O1096      C1105   1.262       .  A
O1097     Ni1101   1.914       .  S
O1097     Ni1119   1.889       .  S
O1097     Ni1113   1.910       .  S
O1097      H1120   0.967       .  S
C1098      O1115   1.271       .  A
C1098      O1107   1.281       .  A
C1098      C1330   1.488       .  S
O1099     Ni1118   1.959       .  S
O1099      C1105   1.281       .  A
O1100     Ni1118   1.917       .  S
O1100      C1102   1.274       .  A
Ni1101     O1104   1.925       .  S
Ni1101     O1106   1.910       .  S
C1102      O1112   1.277       .  A
C1102      C1298   1.489       .  S
O1103     Ni1119   1.933       .  S
O1103      C1109   1.279       .  A
O1104      C1109   1.278       .  A
C1105      C1317   1.476       .  S
O1106      C1108   1.266       .  A
O1107     Ni1118   1.948       .  S
C1108      O1114   1.268       .  A
C1108      C1326   1.482       .  S
C1109      C1305   1.484       .  S
H1110      O1111   0.966       .  S
O1111     Ni1119   1.916       .  S
O1111     Ni1113   1.907       .  S
O1111     Ni1118   1.913       .  S
O1112     Ni1113   1.945       .  S
Ni1113     O1117   1.908       .  S
Ni1113     O1115   1.912       .  S
O1114     Ni1119   1.930       .  S
C1116      O1117   1.268       .  A
C1116      C1301   1.461       .  S
O1121     Ni1127   1.945       .  S
O1121      C1142   1.277       .  A
O1122     Ni1145   1.904   1_556  S
O1122      C1131   1.264       .  A
O1123     Ni1127   1.918       .  S
O1123     Ni1145   1.910       .  S
O1123     Ni1139   1.910       .  S
O1123      H1146   0.966       .  S
C1124      O1141   1.275       .  A
C1124      O1133   1.277       .  A
C1124      C1309   1.478       .  S
O1125     Ni1144   1.935       .  S
O1125      C1131   1.274       .  A
O1126     Ni1144   1.905       .  S
O1126      C1128   1.267   1_556  A
Ni1127     O1130   1.927       .  S
Ni1127     O1132   1.930       .  S
C1128      O1138   1.270       .  A
C1128      C1289   1.473       .  S
O1129     Ni1145   1.918       .  S
O1129      C1135   1.272       .  A
O1130      C1135   1.277       .  A
C1131      C1314   1.478       .  S
O1132      C1134   1.273   1_554  A
O1133     Ni1144   1.929       .  S
C1134      O1140   1.269       .  A
C1134      C1321   1.482       .  S
C1135      C1293   1.467       .  S
H1136      O1137   0.966       .  S
O1137     Ni1145   1.917   1_556  S
O1137     Ni1139   1.904   1_556  S
O1137     Ni1144   1.918       .  S
O1138     Ni1139   1.925       .  S
Ni1139     O1143   1.901       .  S
Ni1139     O1141   1.919   1_554  S
O1140     Ni1145   1.919   1_556  S
C1142      O1143   1.266       .  A
C1142      C1285   1.482       .  S
O1147     Ni1155   1.923       .  S
O1147      C1157   1.281       .  A
O1148      C1158   1.281       .  A
O1149      C1159   1.283       .  A
O1150     Ni1155   1.942       .  S
O1150      C1160   1.285       .  A
O1151     Ni1156   1.903       .  S
O1151      C1160   1.279       .  A
O1152      C1159   1.283       .  A
O1153      C1158   1.281       .  A
O1154     Ni1156   1.907       .  S
O1154      C1157   1.278       .  A
Ni1155    Ni1156   2.391       .  S
C1157      C1274   1.462       .  S
C1158      C1278   1.476       .  S
C1159      C1282   1.490       .  S
C1160      C1269   1.480       .  S
O1161     Ni1169   1.914       .  S
O1161      C1171   1.280       .  A
O1162     Ni1169   1.913       .  S
O1162      C1172   1.282       .  A
O1163     Ni1169   1.909       .  S
O1163      C1173   1.278       .  A
O1164     Ni1169   1.899       .  S
O1164      C1174   1.279       .  A
O1165     Ni1170   1.930       .  S
O1165      C1174   1.282       .  A
O1166     Ni1170   1.923       .  S
O1166      C1173   1.283       .  A
O1167     Ni1170   1.927       .  S
O1167      C1172   1.281       .  A
O1168     Ni1170   1.925       .  S
O1168      C1171   1.283       .  A
Ni1169    Ni1170   2.389       .  S
C1171      C1261   1.476       .  S
C1172      C1258   1.477       .  S
C1173      C1266   1.469       .  S
C1174      C1253   1.475       .  S
C1175      C1306   1.489       .  S
C1175      C1652   1.409       .  A
C1175      C1180   1.404       .  A
C1176      C1386   1.486       .  S
C1176      C1651   1.415   1_545  A
C1176      C1177   1.413       .  A
C1177      C1178   1.408       .  A
C1177      H1182   1.082       .  S
C1178      C1270   1.498       .  S
C1178      C1655   1.422   1_545  A
C1179      C1262   1.492       .  S
C1179      C1654   1.427       .  A
C1179      C1180   1.407       .  A
C1180      H1181   1.084       .  S
O1183     Ni1191   1.927       .  S
O1183      C1193   1.282       .  A
O1184     Ni1667   1.926   1_545  S
O1184      C1194   1.281       .  A
O1185     Ni1667   1.936   1_545  S
O1185      C1195   1.284       .  A
O1186     Ni1191   1.938       .  S
O1186      C1196   1.285       .  A
O1187     Ni1192   1.905       .  S
O1187      C1196   1.278       .  A
O1188     Ni1668   1.925   1_545  S
O1188      C1195   1.283       .  A
O1189     Ni1668   1.912   1_545  S
O1189      C1194   1.281       .  A
O1190     Ni1192   1.911       .  S
O1190      C1193   1.279       .  A
Ni1191     O1660   1.930       .  S
Ni1191     O1661   1.939       .  S
Ni1191    Ni1192   2.388       .  S
Ni1192     O1664   1.910       .  S
Ni1192     O1665   1.898       .  S
C1193      C1238   1.470       .  S
C1194      C1249   1.478       .  S
C1195      C1245   1.492       .  S
C1196      C1241   1.474       .  S
C1197      C1418   1.484       .  S
C1197      C1674   1.415   1_545  A
C1197      C1202   1.405       .  A
C1198      C1294   1.495       .  S
C1198      C1673   1.416       .  A
C1198      C1199   1.409       .  A
C1199      C1200   1.393       .  A
C1199      H1204   1.084       .  S
C1200      C1265   1.482       .  S
C1200      C1677   1.416       .  A
C1201      C1273   1.483       .  S
C1201      C1676   1.420   1_545  A
C1201      C1202   1.401       .  A
C1202      H1203   1.085       .  S
C1205      C1398   1.489       .  S
C1205      C1206   1.416       .  A
C1205      C1210   1.415       .  A
C1206      C1297   1.504       .  S
C1206      C1207   1.408       .  A
C1207      C1208   1.410       .  A
C1207      H1212   1.082       .  S
C1208      C1277   1.485       .  S
C1208      C1209   1.421       .  A
C1209      C1246   1.514       .  S
C1209      C1210   1.409       .  A
C1210      H1211   1.080       .  S
C1213      C1410   1.499       .  S
C1213      C1214   1.418       .  A
C1213      C1218   1.407       .  A
C1214      C1286   1.494       .  S
C1214      C1215   1.412       .  A
C1215      C1216   1.412       .  A
C1215      H1220   1.080       .  S
C1216      C1281   1.510       .  S
C1216      C1217   1.423       .  A
C1217      C1250   1.487       .  S
C1217      C1218   1.406       .  A
C1218      H1219   1.082       .  S
C1221      C1394   1.483       .  S
C1221      C1226   1.407       .  A
C1222      C1302   1.470       .  S
C1222      C1223   1.403       .  A
C1223      C1224   1.399       .  A
C1223      H1228   1.085       .  S
C1224      C1237   1.496       .  S
C1225      C1254   1.480       .  S
C1225      C1226   1.402       .  A
C1226      H1227   1.084       .  S
C1229      C1290   1.484       .  S
C1229      C1234   1.408       .  A
C1230      C1422   1.495       .  S
C1230      C1231   1.409       .  A
C1231      C1232   1.412       .  A
C1231      H1236   1.082       .  S
C1232      C1257   1.492       .  S
C1233      C1242   1.490       .  S
C1233      C1234   1.396       .  A
C1234      H1235   1.084       .  S
C1237      C1238   1.342       .  D
C1237      H1239   1.087       .  S
C1238      H1240   1.084       .  S
C1241      C1242   1.343       .  D
C1241      H1243   1.088       .  S
C1242      H1244   1.086       .  S
C1245      C1246   1.354       .  D
C1245      H1247   1.083       .  S
C1246      H1248   1.084       .  S
C1249      C1250   1.344       .  D
C1249      H1251   1.086       .  S
C1250      H1252   1.085       .  S
C1253      C1254   1.345       .  D
C1253      H1255   1.086       .  S
C1254      H1256   1.087       .  S
C1257      C1258   1.344       .  D
C1257      H1259   1.086       .  S
C1258      H1260   1.085       .  S
C1261      C1262   1.345       .  D
C1261      H1263   1.087       .  S
C1262      H1264   1.087       .  S
C1265      C1266   1.340       .  D
C1265      H1267   1.087       .  S
C1266      H1268   1.087       .  S
C1269      C1270   1.348       .  D
C1269      H1271   1.084       .  S
C1270      H1272   1.086       .  S
C1273      C1274   1.339       .  D
C1273      H1275   1.087       .  S
C1274      H1276   1.086       .  S
C1277      C1278   1.344       .  D
C1277      H1279   1.086       .  S
C1278      H1280   1.086       .  S
C1281      C1282   1.352       .  D
C1281      H1283   1.081       .  S
C1282      H1284   1.083       .  S
C1285      C1286   1.345       .  D
C1285      H1287   1.087       .  S
C1286      H1288   1.087       .  S
C1289      C1290   1.346       .  D
C1289      H1291   1.087       .  S
C1290      H1292   1.086       .  S
C1293      C1294   1.348       .  D
C1293      H1295   1.086       .  S
C1294      H1296   1.086       .  S
C1297      C1298   1.352       .  D
C1297      H1299   1.086       .  S
C1298      H1300   1.085       .  S
C1301      C1302   1.337       .  D
C1301      H1303   1.089       .  S
C1302      H1304   1.086       .  S
C1305      C1306   1.346       .  D
C1305      H1307   1.087       .  S
C1306      H1308   1.087       .  S
C1309      C1310   1.346       .  D
C1309      H1311   1.087       .  S
C1310      H1312   1.087       .  S
C1313      C1314   1.339       .  D
C1313      H1315   1.087       .  S
C1314      H1316   1.087       .  S
C1317      C1318   1.340       .  D
C1317      H1319   1.087       .  S
C1318      H1320   1.086       .  S
C1321      C1322   1.349       .  D
C1321      H1323   1.084       .  S
C1322      H1324   1.086       .  S
C1325      C1326   1.344       .  D
C1325      H1327   1.087       .  S
C1326      H1328   1.087       .  S
C1329      C1330   1.343       .  D
C1329      H1331   1.087       .  S
C1330      H1332   1.086       .  S
C1333      C1334   1.344       .  D
C1333      H1335   1.086       .  S
C1334      H1336   1.087       .  S
C1337      C1338   1.353       .  D
C1337      H1339   1.083       .  S
C1338      H1340   1.081       .  S
C1341      C1342   1.341       .  D
C1341      H1819   1.087       .  S
C1342      H1344   1.087       .  S
H1343      C1817   1.087       .  S
C1345      C1346   1.343       .  D
C1345      H1347   1.087       .  S
C1346      H1348   1.086       .  S
C1349      C1350   1.348       .  D
C1349      H1351   1.083       .  S
C1350      H1352   1.085       .  S
C1353      C1354   1.342       .  D
C1353      H1355   1.085       .  S
C1354      H1356   1.088       .  S
C1357      C1358   1.347       .  D
C1357      H1359   1.085       .  S
C1358      H1360   1.086       .  S
C1361      C1362   1.350       .  D
C1361      H1363   1.081       .  S
C1362      H1364   1.081       .  S
C1365      C1366   1.345       .  D
C1365      H1367   1.086       .  S
C1366      H1368   1.086       .  S
C1369      C1370   1.343       .  D
C1369      H1371   1.085       .  S
C1370      H1372   1.089       .  S
C1373      C1374   1.345       .  D
C1373      H1375   1.086       .  S
C1374      H1376   1.087       .  S
C1377      C1378   1.346       .  D
C1377      H1379   1.084       .  S
C1378      H1380   1.087       .  S
C1381      C1382   1.342       .  D
C1381      H1383   1.087       .  S
C1382      H1384   1.087       .  S
C1385      C1386   1.345       .  D
C1385      H1387   1.087       .  S
C1386      H1388   1.087       .  S
C1389      C1390   1.341       .  D
C1389      H1391   1.087       .  S
C1390      H1392   1.087       .  S
C1393      C1394   1.340       .  D
C1393      H1395   1.088       .  S
C1394      H1396   1.086       .  S
C1397      C1398   1.342       .  D
C1397      H1399   1.087       .  S
C1398      H1400   1.086       .  S
C1401      C1402   1.350       .  D
C1401      H1403   1.083       .  S
C1402      H1404   1.086       .  S
C1405      C1406   1.340       .  D
C1405      H1407   1.086       .  S
C1406      H1408   1.089       .  S
C1409      C1410   1.353       .  D
C1409      H1411   1.084       .  S
C1410      H1412   1.085       .  S
C1413      C1414   1.355       .  D
C1413      H1415   1.086       .  S
C1414      H1416   1.087       .  S
C1417      C1418   1.345       .  D
C1417      H1419   1.087       .  S
C1418      H1420   1.087       .  S
C1421      C1422   1.350       .  D
C1421      H1423   1.087       .  S
C1422      H1424   1.087       .  S
C1425      C1426   1.338       .  D
C1425      H1427   1.087       .  S
C1426      H1428   1.087       .  S
O1429     Ni1435   1.941       .  S
O1429      C1450   1.274       .  A
O1430     Ni1453   1.926   1_556  S
O1430      C1439   1.275       .  A
O1431     Ni1435   1.920       .  S
O1431     Ni1453   1.911       .  S
O1431     Ni1447   1.917       .  S
O1431      H1454   0.966       .  S
C1432      O1449   1.272       .  A
C1432      O1441   1.270       .  A
C1432      C1882   1.477       .  S
O1433     Ni1452   1.917       .  S
O1433      C1439   1.268       .  A
O1434     Ni1452   1.898   1_554  S
O1434      C1436   1.268       .  A
Ni1435     O1438   1.932       .  S
Ni1435     O1440   1.907   1_554  S
C1436      O1446   1.273       .  A
C1436      C1885   1.483       .  S
O1437     Ni1453   1.928       .  S
O1437      C1443   1.277       .  A
O1438      C1443   1.277       .  A
C1439      C1902   1.479       .  S
O1440      C1442   1.270       .  A
O1441     Ni1452   1.925       .  S
C1442      O1448   1.279       .  A
C1442      C1889   1.490       .  S
C1443      C1897   1.484       .  S
H1444      O1445   0.966       .  S
O1445     Ni1453   1.924   1_556  S
O1445     Ni1447   1.915   1_556  S
O1445     Ni1452   1.918       .  S
O1446     Ni1447   1.945       .  S
Ni1447     O1451   1.904       .  S
Ni1447     O1449   1.925   1_554  S
O1448     Ni1453   1.952   1_556  S
C1450      O1451   1.263       .  A
C1450      C1893   1.479       .  S
O1455     Ni1461   1.950       .  S
O1455      C1476   1.276       .  A
O1456     Ni1479   1.918       .  S
O1456      C1465   1.270       .  A
O1457     Ni1461   1.916       .  S
O1457     Ni1479   1.911       .  S
O1457     Ni1473   1.901       .  S
O1457      H1480   0.966       .  S
C1458      O1475   1.270       .  A
C1458      O1467   1.279       .  A
C1458      C1865   1.474       .  S
O1459     Ni1478   1.937       .  S
O1459      C1465   1.274       .  A
O1460     Ni1478   1.917       .  S
O1460      C1462   1.270       .  A
Ni1461     O1464   1.930       .  S
Ni1461     O1466   1.911       .  S
C1462      O1472   1.268       .  A
C1462      C1861   1.476       .  S
O1463     Ni1479   1.914       .  S
O1463      C1469   1.275       .  A
O1464      C1469   1.275       .  A
C1465      C1857   1.484       .  S
O1466      C1468   1.272       .  A
O1467     Ni1478   1.934       .  S
C1468      O1474   1.273       .  A
C1468      C1877   1.476       .  S
C1469      C1869   1.466       .  S
H1470      O1471   0.966       .  S
O1471     Ni1479   1.911       .  S
O1471     Ni1473   1.897       .  S
O1471     Ni1478   1.916       .  S
O1472     Ni1473   1.919       .  S
Ni1473     O1477   1.885       .  S
Ni1473     O1475   1.906       .  S
O1474     Ni1479   1.934       .  S
C1476      O1477   1.261       .  A
C1476      C1873   1.475       .  S
O1481     Ni1489   1.936       .  S
O1481      C1491   1.284       .  A
O1482      C1492   1.284       .  A
O1483     Ni1489   1.934       .  S
O1483      C1493   1.283       .  A
O1484      C1494   1.284       .  A
O1485      C1494   1.281       .  A
O1486     Ni1490   1.920       .  S
O1486      C1493   1.283       .  A
O1487      C1492   1.280       .  A
O1488     Ni1490   1.917       .  S
O1488      C1491   1.280       .  A
Ni1489    Ni1490   2.388       .  S
C1491      C1850   1.479       .  S
C1492      C1845   1.482       .  S
C1493      C1841   1.486       .  S
C1494      C1853   1.485       .  S
O1495     Ni1503   1.921       .  S
O1495      C1505   1.282       .  A
O1496     Ni1503   1.912       .  S
O1496      C1506   1.281       .  A
O1497     Ni1503   1.911       .  S
O1497      C1507   1.280       .  A
O1498     Ni1503   1.909       .  S
O1498      C1508   1.279       .  A
O1499     Ni1504   1.928       .  S
O1499      C1508   1.283       .  A
O1500     Ni1504   1.929       .  S
O1500      C1507   1.283       .  A
O1501     Ni1504   1.927       .  S
O1501      C1506   1.281       .  A
O1502     Ni1504   1.920       .  S
O1502      C1505   1.280       .  A
Ni1503    Ni1504   2.390       .  S
C1505      C1833   1.471       .  S
C1506      C1825   1.473       .  S
C1507      C1837   1.477       .  S
C1508      C1829   1.470       .  S
O1509     Ni1517   1.897       .  S
O1509      C1519   1.279       .  A
O1510      C1520   1.279       .  A
O1511      C1521   1.282       .  A
O1512     Ni1517   1.907       .  S
O1512      C1522   1.278       .  A
O1513     Ni1518   1.927       .  S
O1513      C1522   1.282       .  A
O1514      C1521   1.281       .  A
O1515      C1520   1.285       .  A
O1516     Ni1518   1.924       .  S
O1516      C1519   1.281       .  A
Ni1517    Ni1518   2.390       .  S
C1519      C1813   1.473       .  S
C1520      C1822   1.477       .  S
C1521      C1809   1.480       .  S
C1522      C1818   1.466       .  S
C1523      C1805   1.482       .  S
C1523      C1528   1.405       .  A
C1524      C1858   1.482       .  S
C1524      C1525   1.408       .  A
C1525      C1526   1.406       .  A
C1525      H1530   1.085       .  S
C1526      C1849   1.496       .  S
C1527      C1838   1.503       .  S
C1527      C1528   1.407       .  A
C1528      H1529   1.081       .  S
C1531      C1866   1.480       .  S
C1531      C1536   1.405       .  A
C1532      C1801   1.482       .  S
C1532      C1533   1.405       .  A
C1533      C1534   1.404       .  A
C1533      H1538   1.084       .  S
C1534      C1817   1.493       .  S
C1535      C1834   1.499       .  S
C1535      C1536   1.403       .  A
C1536      H1537   1.085       .  S
C1539      C1798   1.507       .  S
C1539      C1540   1.431       .  A
C1539      C1544   1.421       .  A
C1540      C1901   1.491       .  S
C1540      C1541   1.404       .  A
C1541      C1542   1.396       .  A
C1541      H1546   1.085       .  S
C1542      C1810   1.482       .  S
C1542      C1543   1.409       .  A
C1543      C1846   1.490       .  S
C1543      C1544   1.403       .  A
C1544      H1545   1.079       .  S
C1547      C1878   1.497       .  S
C1547      C1548   1.415       .  A
C1547      C1552   1.410       .  A
C1548      C1794   1.493       .  S
C1548      C1549   1.413       .  A
C1549      C1550   1.411       .  A
C1549      H1554   1.083       .  S
C1550      C1854   1.498       .  S
C1550      C1551   1.423       .  A
C1551      C1821   1.495       .  S
C1551      C1552   1.402       .  A
C1552      H1553   1.082       .  S
C1555      C1789   1.472       .  S
C1555      C1560   1.398       .  A
C1556      C1881   1.487       .  S
C1556      C1557   1.406       .  A
C1557      C1558   1.400       .  A
C1557      H1562   1.085       .  S
C1558      C1830   1.485       .  S
C1559      C1814   1.473       .  S
C1559      C1560   1.393       .  A
C1560      H1561   1.085       .  S
C1563      C1890   1.496       .  S
C1563      C1568   1.414       .  A
C1564      C1786   1.495       .  S
C1564      C1565   1.406       .  A
C1565      C1566   1.408       .  A
C1565      H1570   1.083       .  S
C1566      C1826   1.492       .  S
C1567      C1842   1.488       .  S
C1567      C1568   1.410       .  A
C1568      H1569   1.084       .  S
O1571     Ni1577   1.929       .  S
O1571      C1592   1.268       .  A
O1572     Ni1595   1.891       .  S
O1572      C1581   1.264       .  A
O1573     Ni1577   1.921       .  S
O1573     Ni1595   1.899       .  S
O1573     Ni1589   1.910       .  S
O1573      H1596   0.967       .  S
C1574      O1591   1.270       .  A
C1574      O1583   1.280       .  A
C1574      C1806   1.485       .  S
O1575     Ni1594   1.957       .  S
O1575      C1581   1.280       .  A
O1576     Ni1594   1.919       .  S
O1576      C1578   1.274       .  A
Ni1577     O1580   1.923       .  S
Ni1577     O1582   1.902       .  S
C1578      O1588   1.276       .  A
C1578      C1774   1.490       .  S
O1579     Ni1595   1.930       .  S
O1579      C1585   1.278       .  A
O1580      C1585   1.277       .  A
C1581      C1793   1.482       .  S
O1582      C1584   1.266       .  A
O1583     Ni1594   1.946       .  S
C1584      O1590   1.268       .  A
C1584      C1802   1.475       .  S
C1585      C1781   1.480       .  S
H1586      O1587   0.966       .  S
O1587     Ni1595   1.918       .  S
O1587     Ni1589   1.910       .  S
O1587     Ni1594   1.917       .  S
O1588     Ni1589   1.943       .  S
Ni1589     O1593   1.910       .  S
Ni1589     O1591   1.909       .  S
O1590     Ni1595   1.926       .  S
C1592      O1593   1.266       .  A
C1592      C1777   1.465       .  S
O1597     Ni1603   1.930       .  S
O1597      C1618   1.275       .  A
O1598     Ni1621   1.902       .  S
O1598      C1607   1.265       .  A
O1599     Ni1603   1.912       .  S
O1599     Ni1621   1.903   1_554  S
O1599     Ni1615   1.917       .  S
O1599      H1622   0.966       .  S
C1600      O1617   1.277       .  A
C1600      O1609   1.279       .  A
C1600      C1785   1.485       .  S
O1601     Ni1620   1.936       .  S
O1601      C1607   1.275       .  A
O1602     Ni1620   1.908   1_554  S
O1602      C1604   1.267       .  A
Ni1603     O1606   1.920       .  S
Ni1603     O1608   1.927       .  S
C1604      O1614   1.267       .  A
C1604      C1765   1.474       .  S
O1605     Ni1621   1.929   1_554  S
O1605      C1611   1.275       .  A
O1606      C1611   1.275       .  A
C1607      C1790   1.476       .  S
O1608      C1610   1.273   1_554  A
O1609     Ni1620   1.936       .  S
C1610      O1616   1.272       .  A
C1610      C1797   1.485       .  S
C1611      C1769   1.469       .  S
H1612      O1613   0.967       .  S
O1613     Ni1621   1.919       .  S
O1613     Ni1615   1.898   1_556  S
O1613     Ni1620   1.917       .  S
O1614     Ni1615   1.923       .  S
Ni1615     O1619   1.892       .  S
Ni1615     O1617   1.926   1_554  S
O1616     Ni1621   1.926       .  S
C1618      O1619   1.263       .  A
C1618      C1761   1.469       .  S
O1623     Ni1631   1.932       .  S
O1623      C1633   1.283       .  A
O1624      C1634   1.277       .  A
O1625      C1635   1.287       .  A
O1626     Ni1631   1.932       .  S
O1626      C1636   1.283       .  A
O1627     Ni1632   1.911       .  S
O1627      C1636   1.280       .  A
O1628      C1635   1.278       .  A
O1629      C1634   1.286       .  A
O1630     Ni1632   1.894       .  S
O1630      C1633   1.279       .  A
Ni1631    Ni1632   2.387       .  S
C1633      C1750   1.480       .  S
C1634      C1754   1.477       .  S
C1635      C1758   1.480       .  S
C1636      C1745   1.480       .  S
O1637     Ni1645   1.906       .  S
O1637      C1647   1.278       .  A
O1638     Ni1645   1.904       .  S
O1638      C1648   1.280       .  A
O1639     Ni1645   1.913       .  S
O1639      C1649   1.279       .  A
O1640     Ni1645   1.900       .  S
O1640      C1650   1.280       .  A
O1641     Ni1646   1.933       .  S
O1641      C1650   1.283       .  A
O1642     Ni1646   1.931       .  S
O1642      C1649   1.284       .  A
O1643     Ni1646   1.919       .  S
O1643      C1648   1.280       .  A
O1644     Ni1646   1.921       .  S
O1644      C1647   1.282       .  A
Ni1645    Ni1646   2.390       .  S
C1647      C1737   1.469       .  S
C1648      C1734   1.468       .  S
C1649      C1742   1.478       .  S
C1650      C1729   1.478       .  S
C1651      C1782   1.491       .  S
C1651      C1656   1.402       .  A
C1652      C1862   1.487       .  S
C1652      C1653   1.408       .  A
C1653      C1654   1.411       .  A
C1653      H1658   1.078       .  S
C1654      C1746   1.505       .  S
C1655      C1738   1.485       .  S
C1655      C1656   1.399       .  A
C1656      H1657   1.084       .  S
O1659     Ni1667   1.924       .  S
O1659      C1669   1.280       .  A
O1660      C1670   1.283       .  A
O1661      C1671   1.284       .  A
O1662     Ni1667   1.940       .  S
O1662      C1672   1.285       .  A
O1663     Ni1668   1.913       .  S
O1663      C1672   1.282       .  A
O1664      C1671   1.281       .  A
O1665      C1670   1.279       .  A
O1666     Ni1668   1.920       .  S
O1666      C1669   1.283       .  A
Ni1667    Ni1668   2.387       .  S
C1669      C1714   1.480       .  S
C1670      C1725   1.476       .  S
C1671      C1721   1.488       .  S
C1672      C1717   1.490       .  S
C1673      C1894   1.475       .  S
C1673      C1678   1.406       .  A
C1674      C1770   1.494       .  S
C1674      C1675   1.413       .  A
C1675      C1676   1.401       .  A
C1675      H1680   1.084       .  S
C1676      C1741   1.495       .  S
C1677      C1749   1.488       .  S
C1677      C1678   1.404       .  A
C1678      H1679   1.084       .  S
C1681      C1874   1.491       .  S
C1681      C1682   1.420       .  A
C1681      C1686   1.416       .  A
C1682      C1773   1.504       .  S
C1682      C1683   1.411       .  A
C1683      C1684   1.408       .  A
C1683      H1688   1.083       .  S
C1684      C1753   1.486       .  S
C1684      C1685   1.414       .  A
C1685      C1722   1.500       .  S
C1685      C1686   1.404       .  A
C1686      H1687   1.082       .  S
C1689      C1886   1.498       .  S
C1689      C1690   1.412       .  A
C1689      C1694   1.409       .  A
C1690      C1762   1.481       .  S
C1690      C1691   1.403       .  A
C1691      C1692   1.398       .  A
C1691      H1696   1.085       .  S
C1692      C1757   1.498       .  S
C1692      C1693   1.427       .  A
C1693      C1726   1.496       .  S
C1693      C1694   1.416       .  A
C1694      H1695   1.076       .  S
C1697      C1870   1.485       .  S
C1697      C1702   1.409       .  A
C1698      C1778   1.474       .  S
C1698      C1699   1.407       .  A
C1699      C1700   1.405       .  A
C1699      H1704   1.083       .  S
C1700      C1713   1.494       .  S
C1701      C1730   1.478       .  S
C1701      C1702   1.394       .  A
C1702      H1703   1.084       .  S
C1705      C1766   1.483       .  S
C1705      C1710   1.413       .  A
C1706      C1898   1.492       .  S
C1706      C1707   1.404       .  A
C1707      C1708   1.408       .  A
C1707      H1712   1.083       .  S
C1708      C1733   1.482       .  S
C1709      C1718   1.493       .  S
C1709      C1710   1.402       .  A
C1710      H1711   1.084       .  S
C1713      C1714   1.344       .  D
C1713      H1715   1.087       .  S
C1714      H1716   1.085       .  S
C1717      C1718   1.347       .  D
C1717      H1719   1.086       .  S
C1718      H1720   1.087       .  S
C1721      C1722   1.349       .  D
C1721      H1723   1.085       .  S
C1722      H1724   1.086       .  S
C1725      C1726   1.349       .  D
C1725      H1727   1.082       .  S
C1726      H1728   1.082       .  S
C1729      C1730   1.343       .  D
C1729      H1731   1.086       .  S
C1730      H1732   1.088       .  S
C1733      C1734   1.342       .  D
C1733      H1735   1.086       .  S
C1734      H1736   1.085       .  S
C1737      C1738   1.342       .  D
C1737      H1739   1.087       .  S
C1738      H1740   1.087       .  S
C1741      C1742   1.345       .  D
C1741      H1743   1.087       .  S
C1742      H1744   1.085       .  S
C1745      C1746   1.350       .  D
C1745      H1747   1.082       .  S
C1746      H1748   1.083       .  S
C1749      C1750   1.348       .  D
C1749      H1751   1.078       .  S
C1750      H1752   1.085       .  S
C1753      C1754   1.339       .  D
C1753      H1755   1.087       .  S
C1754      H1756   1.087       .  S
C1757      C1758   1.345       .  D
C1757      H1759   1.086       .  S
C1758      H1760   1.087       .  S
C1761      C1762   1.339       .  D
C1761      H1763   1.087       .  S
C1762      H1764   1.087       .  S
C1765      C1766   1.342       .  D
C1765      H1767   1.087       .  S
C1766      H1768   1.087       .  S
C1769      C1770   1.345       .  D
C1769      H1771   1.086       .  S
C1770      H1772   1.086       .  S
C1773      C1774   1.351       .  D
C1773      H1775   1.086       .  S
C1774      H1776   1.085       .  S
C1777      C1778   1.339       .  D
C1777      H1779   1.088       .  S
C1778      H1780   1.087       .  S
C1781      C1782   1.349       .  D
C1781      H1783   1.086       .  S
C1782      H1784   1.087       .  S
C1785      C1786   1.350       .  D
C1785      H1787   1.087       .  S
C1786      H1788   1.087       .  S
C1789      C1790   1.340       .  D
C1789      H1791   1.087       .  S
C1790      H1792   1.087       .  S
C1793      C1794   1.342       .  D
C1793      H1795   1.087       .  S
C1794      H1796   1.086       .  S
C1797      C1798   1.353       .  D
C1797      H1799   1.083       .  S
C1798      H1800   1.086       .  S
C1801      C1802   1.343       .  D
C1801      H1803   1.087       .  S
C1802      H1804   1.087       .  S
C1805      C1806   1.342       .  D
C1805      H1807   1.087       .  S
C1806      H1808   1.086       .  S
C1809      C1810   1.343       .  D
C1809      H1811   1.086       .  S
C1810      H1812   1.087       .  S
C1813      C1814   1.342       .  D
C1813      H1815   1.087       .  S
C1814      H1816   1.087       .  S
C1817      C1818   1.341       .  D
C1818      H1820   1.084       .  S
C1821      C1822   1.344       .  D
C1821      H1823   1.087       .  S
C1822      H1824   1.087       .  S
C1825      C1826   1.344       .  D
C1825      H1827   1.085       .  S
C1826      H1828   1.086       .  S
C1829      C1830   1.344       .  D
C1829      H1831   1.088       .  S
C1830      H1832   1.086       .  S
C1833      C1834   1.346       .  D
C1833      H1835   1.083       .  S
C1834      H1836   1.087       .  S
C1837      C1838   1.349       .  D
C1837      H1839   1.082       .  S
C1838      H1840   1.085       .  S
C1841      C1842   1.346       .  D
C1841      H1843   1.086       .  S
C1842      H1844   1.087       .  S
C1845      C1846   1.344       .  D
C1845      H1847   1.085       .  S
C1846      H1848   1.088       .  S
C1849      C1850   1.347       .  D
C1849      H1851   1.086       .  S
C1850      H1852   1.087       .  S
C1853      C1854   1.349       .  D
C1853      H1855   1.085       .  S
C1854      H1856   1.086       .  S
C1857      C1858   1.345       .  D
C1857      H1859   1.087       .  S
C1858      H1860   1.086       .  S
C1861      C1862   1.343       .  D
C1861      H1863   1.087       .  S
C1862      H1864   1.087       .  S
C1865      C1866   1.338       .  D
C1865      H1867   1.088       .  S
C1866      H1868   1.086       .  S
C1869      C1870   1.341       .  D
C1869      H1871   1.088       .  S
C1870      H1872   1.086       .  S
C1873      C1874   1.342       .  D
C1873      H1875   1.087       .  S
C1874      H1876   1.086       .  S
C1877      C1878   1.346       .  D
C1877      H1879   1.084       .  S
C1878      H1880   1.086       .  S
C1881      C1882   1.343       .  D
C1881      H1883   1.086       .  S
C1882      H1884   1.088       .  S
C1885      C1886   1.348       .  D
C1885      H1887   1.084       .  S
C1886      H1888   1.086       .  S
C1889      C1890   1.352       .  D
C1889      H1891   1.086       .  S
C1890      H1892   1.087       .  S
C1893      C1894   1.340       .  D
C1893      H1895   1.087       .  S
C1894      H1896   1.087       .  S
C1897      C1898   1.349       .  D
C1897      H1899   1.087       .  S
C1898      H1900   1.087       .  S
C1901      C1902   1.339       .  D
C1901      H1903   1.087       .  S
C1902      H1904   1.087       .  S
