geometry optimzed in LAMMPS
_audit_creation_date              2020-11-30 
_audit_creation_method            'lammps2cif' 
_symmetry_space_group_name_H-M    'P1' 
_symmetry_Int_Tables_number       1 
_symmetry_cell_setting            triclinic 
loop_ 
_symmetry_equiv_pos_as_xyz 
  x,y,z 
_cell_length_a                    47.0198018 
_cell_length_b                    46.51559729108296 
_cell_length_c                    29.25737676706338 
_cell_angle_alpha                 89.21054740150807 
_cell_angle_beta                  90.66285669174076 
_cell_angle_gamma                 91.86866802824329 
loop_ 
_atom_site_label 
_atom_site_type_symbol 
_atom_site_fract_x 
_atom_site_fract_y 
_atom_site_fract_z 
_atom_site_charge 
C1          C  0.17967285  0.49106433  0.24952893     0.02900
C2          C  0.16462378  0.48785525  0.20795991    -0.13300
C3          C  0.13469115  0.98998653  0.20337648     0.00400
C4          C  0.11999330  0.99433044  0.24394644    -0.11800
C5          C  0.13452460  0.99629035  0.28574865     0.02900
C6          C  0.16479088  0.49451259  0.29035943    -0.11200
H7          H  0.17600677  0.48447843  0.17659133     0.08500
H8          H  0.09693923  0.99480115  0.24324843     0.06000
H9          H  0.17629754  0.49634866  0.32254979     0.05800
C10         C  0.30209354  0.48617021  0.24946019     0.02900
C11         C  0.31475759  0.48484583  0.20632726    -0.13300
C12         C  0.34429835  0.48338550  0.20285417     0.00400
C13         C  0.36119497  0.48358805  0.24250247    -0.11800
C14         C  0.34883054  0.48338959  0.28588979     0.02900
C15         C  0.31918004  0.48534369  0.28931820    -0.11200
H16         H  0.30162132  0.48451851  0.17563579     0.08500
H17         H  0.38410894  0.48254262  0.23955487     0.06000
H18         H  0.30939803  0.48542501  0.32266289     0.05600
C19         C  0.46260518  0.15782955  0.24551980     0.02900
C20         C  0.97028271  0.14703563  0.20332551    -0.13300
C21         C  0.97509360  0.11772856  0.19860817     0.00400
C22         C  0.97251182  0.09920989  0.23655941    -0.11800
C23         C  0.96399338  0.10939472  0.27910538     0.02900
C24         C  0.95931139  0.13896498  0.28357330    -0.11200
H25         H  0.47221748  0.16132416  0.17355707     0.08500
H26         H  0.97720137  0.07670941  0.23279631     0.06000
H27         H  0.45308122  0.14728748  0.31592679     0.05800
C28         C  0.45435108  0.28155047  0.25218888     0.02900
C29         C  0.45721344  0.29801914  0.21151838    -0.13300
C30         C  0.45834815  0.32821709  0.21301306     0.00400
C31         C  0.45666480  0.34173808  0.25536373    -0.11800
C32         C  0.45501544  0.32567931  0.29600681     0.02900
C33         C  0.45367905  0.29561611  0.29444345    -0.11200
H34         H  0.46011284  0.28740616  0.17927441     0.08500
H35         H  0.45844125  0.36501829  0.25694808     0.06000
H36         H  0.45297329  0.28320287  0.32605708     0.05800
O37         O  0.48272959  0.02531772  0.05153766    -0.80400
O38         O  0.45661799  0.46127348  0.40694535    -0.80400
O39         O  0.98057746  0.02575538  0.46286083    -0.80400
O40         O  0.42098613  0.44020174  0.03098383    -0.80400
O41         O  0.49472870  0.00400426  0.40167693    -0.80500
O42         O  0.44033528  0.48115730  0.05667875    -0.80400
O43         O  0.43648922  0.47897128  0.46649407    -0.80400
O44         O  0.02221865  0.04510087  0.02306555    -0.80400
C45         C  0.50140375  0.04622836  0.05011540     1.09300
C46         C  0.43544845  0.47275430  0.42463853     1.09200
C47         C  0.48243467  0.02478418  0.41971523     1.09300
C48         C  0.41972432  0.46203457  0.05665710     1.09200
O49         O  0.48221480  0.44200940  0.09608269    -0.80400
O50         O  0.03926429  0.46610840  0.43360706    -0.80500
O51         O  0.04681886  0.99294073  0.02614878    -0.80400
O52         O  0.45303168  0.41887546  0.45710445    -0.80400
O53         O  0.49796874  0.42152049  0.43774014    -0.80400
O54         O  0.02398165  0.48307636  0.09126715    -0.80400
O55         O  0.47270921  0.41670751  0.03688765    -0.80400
O56         O  0.03945665  0.01280000  0.44569400    -0.80400
Co57       Co  0.48382149  0.48115902  0.06619492     1.51500
Co58       Co  0.49748763  0.46341723  0.42583610     1.51700
Co59       Co  0.01219223  0.00795166  0.49792842     1.51600
Co60       Co  0.45639676  0.44973672  0.50479208     1.51500
O61         O  0.49404339  0.46849808  0.49564191    -1.42300
C62         C  0.47814778  0.41771295  0.07855430     1.09200
C63         C  0.05092139  0.49095814  0.42963865     1.09300
C64         C  0.04744447  0.48602362  0.07115267     1.09300
C65         C  0.47414011  0.40794830  0.43742535     1.09200
C66         C  0.48670850  0.34690877  0.35494705    -0.20600
C67         C  0.45886281  0.34100374  0.33957820    -0.07100
C68         C  0.43598249  0.35375774  0.36123866     0.13700
C69         C  0.44161441  0.37375836  0.39595690    -0.20600
C70         C  0.46972640  0.38193184  0.40866301    -0.07100
C71         C  0.49257194  0.36725815  0.38905915     0.13700
C72         C  0.52325122  0.37319555  0.40253958    -0.24000
H73         H  0.50411970  0.33683256  0.33801276     0.15000
H74         H  0.42389883  0.38435005  0.41108880     0.15100
C75         C  0.40574526  0.34704684  0.34641869    -0.23900
H76         H  0.53764496  0.35786394  0.38652935     0.05300
H77         H  0.52582698  0.37099521  0.44018389     0.08500
H78         H  0.53027997  0.39508996  0.39103743     0.08500
H79         H  0.40096438  0.32363807  0.35072333     0.08500
H80         H  0.40275367  0.35322286  0.30993409     0.08500
H81         H  0.39029119  0.35885902  0.36689340     0.05300
C82         C  0.49057728  0.36348659  0.17478830    -0.20600
C83         C  0.46553687  0.34640203  0.17236147    -0.07100
C84         C  0.44677445  0.35004432  0.13481284     0.13700
C85         C  0.45283017  0.37198570  0.10220499    -0.20600
C86         C  0.47651217  0.39106533  0.10746119    -0.07100
C87         C  0.49605354  0.38586978  0.14333377     0.13700
C88         C  0.02304036  0.40398529  0.14925621    -0.24000
H89         H  0.00541773  0.36046628  0.20380602     0.15000
H90         H  0.43802883  0.37541943  0.07415091     0.15100
C91         C  0.41968421  0.33207159  0.13056296    -0.23900
H92         H  0.03680905  0.39601569  0.17750213     0.05300
H93         H  0.01752167  0.42633892  0.15724753     0.08500
H94         H  0.03523081  0.40328049  0.11703551     0.08500
H95         H  0.40644551  0.33473236  0.16130841     0.08500
H96         H  0.42474932  0.30907532  0.12722914     0.08500
H97         H  0.40696286  0.33843080  0.10005334     0.05300
C98         C  0.97787407  0.09717458  0.35935230    -0.20600
C99         C  0.96280259  0.08935635  0.31935625    -0.07100
C100        C  0.45018485  0.06122459  0.31648233     0.13700
C101        C  0.45627834  0.04089188  0.35072689    -0.20600
C102        C  0.47263293  0.04830969  0.38944573    -0.07100
C103        C  0.98264945  0.07710153  0.39479504     0.13700
C104        C  0.99992613  0.08627564  0.43604126    -0.24000
H105        H  0.98739295  0.11863901  0.36180889     0.15000
H106        H  0.44822790  0.01892008  0.34707599     0.15100
C107        C  0.43005840  0.05194841  0.27853535    -0.23900
H108        H  0.00673875  0.10933781  0.43386285     0.05300
H109        H  0.01931080  0.07338310  0.43901860     0.08500
H110        H  0.98697780  0.08311865  0.46729185     0.08500
H111        H  0.43971929  0.03483592  0.25830721     0.08500
H112        H  0.42436226  0.06993800  0.25532539     0.08500
H113        H  0.40989979  0.04321959  0.29349817     0.05300
C114        C  0.01089501  0.10076378  0.14447351    -0.20600
C115        C  0.98231938  0.10567374  0.15398267    -0.07100
C116        C  0.46060885  0.09531936  0.12348509     0.13700
C117        C  0.46808782  0.07860888  0.08627104    -0.20600
C118        C  0.49648611  0.07138102  0.07907415    -0.07100
C119        C  0.01830406  0.08345241  0.10770066     0.13700
C120        C  0.04895631  0.07624840  0.10168698    -0.24000
H121        H  0.02727416  0.10886688  0.16775772     0.15000
H122        H  0.45141235  0.06936029  0.06459433     0.15100
C123        C  0.42968472  0.10044302  0.13231417    -0.23900
H124        H  0.06309095  0.08726105  0.12710030     0.05300
H125        H  0.05604378  0.08307673  0.06703048     0.08500
H126        H  0.05130714  0.05271141  0.10619003     0.08500
H127        H  0.42613654  0.12391594  0.13262819     0.08500
H128        H  0.42351847  0.09084318  0.16586726     0.08500
H129        H  0.41559977  0.09068442  0.10559690     0.05300
C130        C  0.47719684  0.23616294  0.27550489    -0.20600
C131        C  0.45524631  0.24967412  0.25132719    -0.07100
C132        C  0.43469787  0.23262038  0.22743588     0.13700
C133        C  0.43726166  0.20260065  0.22694788    -0.20600
C134        C  0.45952163  0.18921729  0.25041517    -0.07100
C135        C  0.97962941  0.20624003  0.27620278     0.13700
C136        C  0.00403130  0.19288795  0.30171231    -0.24000
H137        H  0.99268643  0.24935950  0.29506049     0.15000
H138        H  0.42188968  0.18944089  0.20801026     0.15100
C139        C  0.40960918  0.24583569  0.20362114    -0.23900
H140        H  0.01815534  0.20941249  0.31818727     0.05300
H141        H  0.01701321  0.18065108  0.27772182     0.08500
H142        H  0.99580644  0.17816659  0.32899170     0.08500
H143        H  0.41685900  0.26004787  0.17507597     0.08500
H144        H  0.39760307  0.25852296  0.22833976     0.08500
H145        H  0.39480287  0.22917271  0.18907021     0.05300
C146        C  0.37042964  0.50025360  0.36007472    -0.20600
C147        C  0.36725642  0.47880852  0.32671822    -0.07100
C148        C  0.38334036  0.45374897  0.33094406     0.13700
C149        C  0.40409069  0.45211144  0.36529036    -0.20600
C150        C  0.40925245  0.47458971  0.39615722    -0.07100
C151        C  0.39116194  0.49826407  0.39525971     0.13700
C152        C  0.39428466  0.52171197  0.43003788    -0.24000
H153        H  0.35749743  0.51907996  0.35747269     0.15000
H154        H  0.41713075  0.43331876  0.36712194     0.15100
C155        C  0.37880144  0.42849626  0.29943494    -0.23900
H156        H  0.37871706  0.53882594  0.42382461     0.05300
H157        H  0.41865995  0.03302842  0.42318223     0.08500
H158        H  0.39056810  0.51252880  0.46477404     0.08500
H159        H  0.38524159  0.43429492  0.26411111     0.08500
H160        H  0.35604542  0.42134844  0.29948967     0.08500
H161        H  0.39160500  0.40991582  0.31039052     0.05300
C162        C  0.39115215  0.49583350  0.10025893    -0.20600
C163        C  0.39474123  0.46739534  0.08578368    -0.07100
C164        C  0.37770284  0.44494489  0.10564604     0.13700
C165        C  0.35934219  0.45128837  0.14151665    -0.20600
C166        C  0.35802918  0.47927089  0.15842852    -0.07100
C167        C  0.37339923  0.50193303  0.13676580     0.13700
C168        C  0.37193568  0.53236595  0.15341992    -0.24000
H169        H  0.40365374  0.51330588  0.08481305     0.15000
H170        H  0.34743048  0.43401839  0.15862735     0.15100
C171        C  0.38017869  0.41407426  0.09186191    -0.23900
H172        H  0.38511957  0.54758898  0.13236378     0.05300
H173        H  0.37980417  0.53366155  0.18927966     0.08500
H174        H  0.34957268  0.53930241  0.15173139     0.08500
H175        H  0.40215347  0.40709776  0.09866394     0.08500
H176        H  0.37484832  0.41179592  0.05500577     0.08500
H177        H  0.36548610  0.39945891  0.11139552     0.05300
C178        C  0.09338678  0.47137084  0.39352754    -0.20600
C179        C  0.07615714  0.49508478  0.39995578    -0.07100
C180        C  0.08117222  0.52044117  0.37325998     0.13700
C181        C  0.10236487  0.52075298  0.33976657    -0.20600
C182        C  0.11832132  0.49641905  0.33187760    -0.07100
C183        C  0.11409519  0.47159089  0.35944491     0.13700
C184        C  0.13002033  0.44462344  0.35083462    -0.24000
H185        H  0.08963086  0.45194112  0.41374186     0.15000
H186        H  0.10543569  0.53950977  0.31773975     0.15100
C187        C  0.06316794  0.54652782  0.37731507    -0.23900
H188        H  0.12352391  0.42688067  0.37467277     0.05300
H189        H  0.15320815  0.44895721  0.35550299     0.08500
H190        H  0.12227376  0.93778936  0.30710675     0.08500
H191        H  0.06542633  0.55544388  0.41220099     0.08500
H192        H  0.04258251  0.04363667  0.37113106     0.08500
H193        H  0.06966290  0.56384859  0.35270377     0.05300
C194        C  0.07554581  0.46160170  0.13035297    -0.20600
C195        C  0.07446477  0.48364924  0.09758531    -0.07100
C196        C  0.09762041  0.00642916  0.09171782     0.13700
C197        C  0.11892173  0.00588460  0.12596327    -0.20600
C198        C  0.11787769  0.48303999  0.16515430    -0.07100
C199        C  0.09692622  0.46065697  0.16370838     0.13700
C200        C  0.09599511  0.43596359  0.19770642    -0.24000
H201        H  0.05886623  0.44533430  0.13073865     0.15000
H202        H  0.13504885  0.02307331  0.12723526     0.15100
C203        C  0.09962896  0.03044346  0.05668135    -0.23900
H204        H  0.09603446  0.41530731  0.17911955     0.05300
H205        H  0.07622780  0.43663495  0.21802612     0.08500
H206        H  0.11453573  0.43625106  0.22146585     0.08500
H207        H  0.08142642  0.03086796  0.03255990     0.08500
H208        H  0.11928056  0.02826349  0.03651161     0.08500
H209        H  0.10099344  0.05145670  0.07420273     0.05300
C210        C  0.22405981  0.46506452  0.26516282    -0.20600
C211        C  0.21103360  0.49032264  0.25048852    -0.07100
C212        C  0.22833149  0.01216211  0.22853818     0.13700
C213        C  0.25771458  0.51272119  0.23782952    -0.20600
C214        C  0.27079385  0.48742334  0.25221303    -0.07100
C215        C  0.25383030  0.46324617  0.26581497     0.13700
C216        C  0.26708484  0.43529498  0.27942216    -0.24000
H217        H  0.21084820  0.44660308  0.27539598     0.15000
H218        H  0.27168938  0.02647302  0.21651352     0.15100
C219        C  0.21607888  0.03846229  0.20617751    -0.23900
H220        H  0.25071186  0.41832545  0.28768244     0.05300
H221        H  0.28087601  0.43842803  0.31008907     0.08500
H222        H  0.28008427  0.42757721  0.25089357     0.08500
H223        H  0.20254541  0.04951276  0.23085769     0.08500
H224        H  0.20306932  0.03222503  0.17581476     0.08500
H225        H  0.23302378  0.05398751  0.19457545     0.05300
C226        C  0.18018401  0.49344103  0.74766334     0.02900
C227        C  0.16541340  0.49040979  0.70574353    -0.13300
C228        C  0.13499649  0.99084350  0.70307490     0.00400
C229        C  0.12009765  0.99490243  0.74354820    -0.11800
C230        C  0.13445657  0.99687139  0.78551435     0.02900
C231        C  0.16495005  0.49634896  0.78829883    -0.11200
H232        H  0.17702676  0.48720331  0.67454460     0.08500
H233        H  0.09703584  0.99516579  0.74262771     0.06000
H234        H  0.17620404  0.49786946  0.82075581     0.05800
C235        C  0.30251801  0.48642466  0.75065064     0.02900
C236        C  0.31508687  0.48491660  0.70746671    -0.13300
C237        C  0.34455965  0.48299304  0.70385895     0.00400
C238        C  0.36152471  0.48287881  0.74337219    -0.11800
C239        C  0.34925643  0.48279851  0.78679476     0.02900
C240        C  0.31966953  0.48528705  0.79042611    -0.11200
H241        H  0.30191990  0.48487773  0.67680855     0.08500
H242        H  0.38441279  0.48159780  0.74027365     0.06000
H243        H  0.31001032  0.48569139  0.82383891     0.05600
C244        C  0.46176232  0.15753051  0.74586456     0.02900
C245        C  0.96908213  0.14662138  0.70311947    -0.13300
C246        C  0.97370038  0.11725612  0.69868147     0.00400
C247        C  0.97118913  0.09892778  0.73686344    -0.11800
C248        C  0.96294884  0.10934572  0.77941417     0.02900
C249        C  0.95855478  0.13898945  0.78363973    -0.11200
H250        H  0.47130920  0.16082625  0.67386270     0.08500
H251        H  0.97582101  0.07639871  0.73330804     0.06000
H252        H  0.45250909  0.14730211  0.81644008     0.05800
C253        C  0.45756722  0.28142065  0.75297622     0.02900
C254        C  0.46024062  0.29772162  0.71212892    -0.13300
C255        C  0.46224491  0.32789994  0.71349708     0.00400
C256        C  0.46153107  0.34156263  0.75581617    -0.11800
C257        C  0.45961751  0.32560055  0.79653243     0.02900
C258        C  0.45763811  0.29555989  0.79516791    -0.11200
H259        H  0.46206298  0.28695890  0.67975267     0.08500
H260        H  0.46368270  0.36482817  0.75721761     0.06000
H261        H  0.45666208  0.28321190  0.82683175     0.05800
O262        O  0.48214620  0.02428663  0.55199305    -0.80400
O263        O  0.45788477  0.46146115  0.90660775    -0.80400
O264        O  0.98049917  0.02589699  0.96306392    -0.80400
O265        O  0.42074085  0.43949941  0.53191009    -0.80400
O266        O  0.49439473  0.00408086  0.90174884    -0.80500
O267        O  0.44046626  0.48008598  0.55866236    -0.80400
O268        O  0.43763824  0.47944521  0.96575109    -0.80400
O269        O  0.02190025  0.04486600  0.52351556    -0.80400
C270        C  0.50055940  0.04546977  0.55084624     1.09300
C271        C  0.43669321  0.47305256  0.92403002     1.09200
C272        C  0.48213172  0.02483058  0.91993369     1.09300
C273        C  0.41966665  0.46116955  0.55792745     1.09200
O274        O  0.48357111  0.44134920  0.59580733    -0.80400
O275        O  0.04035572  0.46638671  0.93377488    -0.80500
O276        O  0.04716390  0.99282194  0.52540371    -0.80400
O277        O  0.45398367  0.41911388  0.95679112    -0.80400
O278        O  0.49910556  0.42182300  0.93842999    -0.80400
O279        O  0.02414990  0.48314407  0.59073116    -0.80400
O280        O  0.47256563  0.41634294  0.53680694    -0.80400
O281        O  0.03933099  0.01289592  0.94579824    -0.80400
Co282      Co  0.48408996  0.48060752  0.56654699     1.51500
Co283      Co  0.49864681  0.46358732  0.92606984     1.51700
Co284      Co  0.01211762  0.00812430  0.99816063     1.51600
Co285      Co  0.45696132  0.45009676  0.00439078     1.51500
O286        O  0.49470677  0.46863642  0.99581831    -1.42300
C287        C  0.47907161  0.41717586  0.57813197     1.09200
C288        C  0.05199354  0.49119654  0.92953386     1.09300
C289        C  0.04737885  0.48632481  0.57002062     1.09300
C290        C  0.47536026  0.40815472  0.93786767     1.09200
C291        C  0.48982645  0.34651244  0.85775903    -0.20600
C292        C  0.46243906  0.34100499  0.84011775    -0.07100
C293        C  0.43903582  0.35410542  0.85972478     0.13700
C294        C  0.44376866  0.37412926  0.89463616    -0.20600
C295        C  0.47152323  0.38196561  0.90950679    -0.07100
C296        C  0.49480647  0.36687685  0.89213806     0.13700
C297        C  0.52505111  0.37236105  0.90838863    -0.24000
H298        H  0.50763009  0.33611870  0.84245305     0.15000
H299        H  0.42573473  0.38504261  0.90812838     0.15100
C300        C  0.40922618  0.34775216  0.84245372    -0.23900
H301        H  0.53971191  0.35660890  0.89413449     0.05300
H302        H  0.52620902  0.37043263  0.94622950     0.08500
H303        H  0.53290608  0.39403142  0.89711267     0.08500
H304        H  0.40404893  0.32439701  0.84641856     0.08500
H305        H  0.40745982  0.35395164  0.80577626     0.08500
H306        H  0.39326999  0.35975798  0.86158639     0.05300
C307        C  0.49405556  0.36217673  0.67223047    -0.20600
C308        C  0.46848435  0.34587066  0.67228895    -0.07100
C309        C  0.44828733  0.35033530  0.63700661     0.13700
C310        C  0.45371930  0.37206776  0.60385355    -0.20600
C311        C  0.47806861  0.39042667  0.60676485    -0.07100
C312        C  0.49883214  0.38460225  0.64053503     0.13700
C313        C  0.02547049  0.40317479  0.64489377    -0.24000
H314        H  0.00929017  0.35952195  0.70041707     0.15000
H315        H  0.43795144  0.37602539  0.57742515     0.15100
C316        C  0.42033940  0.33359955  0.63602158    -0.23900
H317        H  0.04015333  0.39489877  0.67165724     0.05300
H318        H  0.02021340  0.42540764  0.65407368     0.08500
H319        H  0.03655325  0.40291677  0.61159064     0.08500
H320        H  0.40871520  0.33695600  0.66824311     0.08500
H321        H  0.42416278  0.31034858  0.63228112     0.08500
H322        H  0.40658145  0.34049789  0.60703385     0.05300
C323        C  0.97706330  0.09730688  0.85970758    -0.20600
C324        C  0.96186784  0.08943182  0.81984935    -0.07100
C325        C  0.44906245  0.06113493  0.81739515     0.13700
C326        C  0.45542351  0.04083243  0.85151825    -0.20600
C327        C  0.47207890  0.04829702  0.88986954    -0.07100
C328        C  0.98205484  0.07723663  0.89509012     0.13700
C329        C  0.99935563  0.08649837  0.93626294    -0.24000
H330        H  0.98651643  0.11880212  0.86208802     0.15000
H331        H  0.44739345  0.01884440  0.84801873     0.15100
C332        C  0.42872293  0.05180983  0.77976635    -0.23900
H333        H  0.00598735  0.10961006  0.93411148     0.05300
H334        H  0.01884756  0.07375628  0.93908781     0.08500
H335        H  0.98649226  0.08321559  0.96758014     0.08500
H336        H  0.43827762  0.03468850  0.75942007     0.08500
H337        H  0.42288273  0.06977756  0.75661135     0.08500
H338        H  0.40866189  0.04307765  0.79504362     0.05300
C339        C  0.00977343  0.09993887  0.64541493    -0.20600
C340        C  0.98115299  0.10501699  0.65429459    -0.07100
C341        C  0.45937696  0.09442356  0.62418110     0.13700
C342        C  0.46694163  0.07751132  0.58723266    -0.20600
C343        C  0.49538529  0.07041053  0.58013962    -0.07100
C344        C  0.01740778  0.08262659  0.60879217     0.13700
C345        C  0.04807253  0.07527779  0.60344459    -0.24000
H346        H  0.02600044  0.10796282  0.66903435     0.15000
H347        H  0.45032554  0.06813972  0.56557236     0.15100
C348        C  0.42844768  0.09965366  0.63273403    -0.23900
H349        H  0.06202794  0.08610735  0.62929423     0.05300
H350        H  0.05549439  0.08223187  0.56903282     0.08500
H351        H  0.05028512  0.05170657  0.60774595     0.08500
H352        H  0.42495733  0.12314070  0.63281070     0.08500
H353        H  0.42216879  0.09019051  0.66632864     0.08500
H354        H  0.41442750  0.08985738  0.60597347     0.05300
C355        C  0.47963717  0.23538260  0.77453744    -0.20600
C356        C  0.45739204  0.24954286  0.75221960    -0.07100
C357        C  0.43550582  0.23313986  0.73030248     0.13700
C358        C  0.43710295  0.20302558  0.72952708    -0.20600
C359        C  0.45969751  0.18898544  0.75098136    -0.07100
C360        C  0.98105407  0.20560809  0.77424090     0.13700
C361        C  0.00586015  0.19154355  0.79755323    -0.24000
H362        H  0.99587391  0.24836698  0.79214013     0.15000
H363        H  0.42072227  0.19032639  0.71198161     0.15100
C364        C  0.41007961  0.24721445  0.70894978    -0.23900
H365        H  0.02092539  0.20765732  0.81294464     0.05300
H366        H  0.01767853  0.17902703  0.77237165     0.08500
H367        H  0.99814700  0.17693990  0.82536543     0.08500
H368        H  0.41676920  0.26138214  0.67999906     0.08500
H369        H  0.39938045  0.26015040  0.73491079     0.08500
H370        H  0.39431121  0.23105381  0.69554654     0.05300
C371        C  0.37100300  0.49978157  0.86065161    -0.20600
C372        C  0.36779840  0.47827171  0.82743242    -0.07100
C373        C  0.38418396  0.45339769  0.83133443     0.13700
C374        C  0.40536426  0.45213000  0.86499996    -0.20600
C375        C  0.41048534  0.47468708  0.89569972    -0.07100
C376        C  0.39204196  0.49807063  0.89534807     0.13700
C377        C  0.39507475  0.52150541  0.93017865    -0.24000
H378        H  0.35784392  0.51845219  0.85829632     0.15000
H379        H  0.41865507  0.43351853  0.86655087     0.15100
C380        C  0.37945013  0.42791891  0.80033667    -0.23900
H381        H  0.37921736  0.53838779  0.92432549     0.05300
H382        H  0.41823453  0.03228254  0.92501026     0.08500
H383        H  0.39171343  0.51223064  0.96494865     0.08500
H384        H  0.38524782  0.43353738  0.76466723     0.08500
H385        H  0.35678874  0.42049721  0.80145211     0.08500
H386        H  0.39264633  0.40957086  0.81101517     0.05300
C387        C  0.39132074  0.49515908  0.60126476    -0.20600
C388        C  0.39463173  0.46669536  0.58673756    -0.07100
C389        C  0.37732513  0.44438838  0.60637931     0.13700
C390        C  0.35908091  0.45086285  0.64231338    -0.20600
C391        C  0.35813001  0.47883172  0.65938701    -0.07100
C392        C  0.37371330  0.50138237  0.63784009     0.13700
C393        C  0.37269034  0.53180032  0.65472951    -0.24000
H394        H  0.40398882  0.51253213  0.58587991     0.15000
H395        H  0.34698397  0.43369165  0.65934426     0.15100
C396        C  0.37935793  0.41353684  0.59225596    -0.23900
H397        H  0.38602527  0.54692156  0.63371631     0.05300
H398        H  0.38065501  0.53288839  0.69055419     0.08500
H399        H  0.35042905  0.53904151  0.65322734     0.08500
H400        H  0.40119777  0.40619892  0.59907030     0.08500
H401        H  0.37405824  0.41150633  0.55534899     0.08500
H402        H  0.36442058  0.39905887  0.61156918     0.05300
C403        C  0.09345557  0.47140827  0.89041850    -0.20600
C404        C  0.07681900  0.49534296  0.89874824    -0.07100
C405        C  0.08193571  0.52103319  0.87286499     0.13700
C406        C  0.10274324  0.52159198  0.83869317    -0.20600
C407        C  0.11825015  0.49719475  0.82928039    -0.07100
C408        C  0.11376904  0.47190271  0.85565985     0.13700
C409        C  0.12910164  0.44484388  0.84520105    -0.24000
H410        H  0.08959812  0.45166180  0.90978750     0.15000
H411        H  0.10595943  0.54071140  0.81752042     0.15100
C412        C  0.06448004  0.54734333  0.87862051    -0.23900
H413        H  0.12254080  0.42674675  0.86831649     0.05300
H414        H  0.15239612  0.44868303  0.84937526     0.08500
H415        H  0.12163158  0.93826916  0.80580567     0.08500
H416        H  0.06734636  0.55563700  0.91380734     0.08500
H417        H  0.04251330  0.04402580  0.87152961     0.08500
H418        H  0.07096590  0.56495288  0.85451974     0.05300
C419        C  0.07680197  0.46219448  0.62798343    -0.20600
C420        C  0.07480840  0.48440104  0.59561657    -0.07100
C421        C  0.09792394  0.00729543  0.59137303     0.13700
C422        C  0.11911936  0.00696783  0.62580357    -0.20600
C423        C  0.11881370  0.48474244  0.66233707    -0.07100
C424        C  0.09850502  0.46175471  0.66090804     0.13700
C425        C  0.09853402  0.43692266  0.69462373    -0.24000
H426        H  0.06070382  0.44543292  0.62837705     0.15000
H427        H  0.13488864  0.02447731  0.62751144     0.15100
C428        C  0.09950166  0.03153601  0.55671040    -0.23900
H429        H  0.09902160  0.41638280  0.67579189     0.05300
H430        H  0.07890390  0.43692647  0.71536640     0.08500
H431        H  0.11726745  0.43766722  0.71799133     0.08500
H432        H  0.08134152  0.03160746  0.53245312     0.08500
H433        H  0.11927936  0.02994228  0.53666280     0.08500
H434        H  0.10032802  0.05244975  0.57453806     0.05300
C435        C  0.22405336  0.46733888  0.76671731    -0.20600
C436        C  0.21155943  0.49230179  0.74950299    -0.07100
C437        C  0.22852615  0.01332975  0.72883411     0.13700
C438        C  0.25873070  0.51354090  0.73670039    -0.20600
C439        C  0.27126497  0.48845252  0.75333763    -0.07100
C440        C  0.25377092  0.46504815  0.76853178     0.13700
C441        C  0.26636770  0.43733724  0.78501220    -0.24000
H442        H  0.21045132  0.44942970  0.77804508     0.15000
H443        H  0.27187396  0.02757650  0.71650591     0.15100
C444        C  0.21626698  0.03960452  0.70640515    -0.23900
H445        H  0.24960896  0.42091042  0.79397635     0.05300
H446        H  0.27970928  0.44123893  0.81596121     0.08500
H447        H  0.27966226  0.42845482  0.75778769     0.08500
H448        H  0.20273381  0.05067702  0.73105885     0.08500
H449        H  0.20326261  0.03334573  0.67605144     0.08500
H450        H  0.23320907  0.05512259  0.69476768     0.05300
C451        C  0.17931061  0.99181416  0.24612738     0.02900
C452        C  0.16441836  0.98904416  0.20438350    -0.13300
C453        C  0.13482046  0.48825874  0.20730472     0.00400
C454        C  0.12031759  0.49281229  0.24798371    -0.11800
C455        C  0.13502703  0.49539936  0.28954977     0.02900
C456        C  0.16425268  0.99503827  0.28686666    -0.11200
H457        H  0.17583422  0.98539559  0.17313367     0.08500
H458        H  0.09725285  0.49310748  0.24756675     0.06000
H459        H  0.17559014  0.99629369  0.31927679     0.05800
C460        C  0.30148613  0.98354048  0.25086773     0.02900
C461        C  0.31487664  0.98199459  0.20832721    -0.13300
C462        C  0.34444074  0.98036206  0.20611193     0.00400
C463        C  0.36066355  0.98020407  0.24641148    -0.11800
C464        C  0.34760857  0.98080323  0.28915733     0.02900
C465        C  0.31797343  0.98313774  0.29139637    -0.11200
H466        H  0.30229191  0.98189141  0.17704681     0.08500
H467        H  0.38358680  0.97861261  0.24452395     0.06000
H468        H  0.30781585  0.98416152  0.32434917     0.05600
C469        C  0.46414161  0.65795932  0.24765430     0.02900
C470        C  0.97207289  0.64693676  0.20500349    -0.13300
C471        C  0.97716889  0.61766085  0.20067362     0.00400
C472        C  0.97475642  0.59932566  0.23888010    -0.11800
C473        C  0.96578363  0.60955388  0.28116529     0.02900
C474        C  0.96091605  0.63912887  0.28525547    -0.11200
H475        H  0.47405274  0.66113531  0.17576428     0.08500
H476        H  0.97971706  0.57687304  0.23542185     0.06000
H477        H  0.45406797  0.64761709  0.31795252     0.05800
C478        C  0.45775029  0.78204641  0.25359378     0.02900
C479        C  0.46122746  0.79875579  0.21323531    -0.13300
C480        C  0.46303483  0.82896251  0.21526035     0.00400
C481        C  0.46167562  0.84221746  0.25787131    -0.11800
C482        C  0.45903394  0.82589675  0.29816292     0.02900
C483        C  0.45688747  0.79588460  0.29602541    -0.11200
H484        H  0.46392265  0.78831684  0.18079699     0.08500
H485        H  0.46387966  0.86545495  0.25989584     0.06000
H486        H  0.45537287  0.78329518  0.32740497     0.05800
O487        O  0.48343450  0.52480279  0.05448835    -0.80400
O488        O  0.45651223  0.96093792  0.40686565    -0.80400
O489        O  0.98064471  0.52548120  0.46516709    -0.80400
O490        O  0.42141786  0.94006597  0.03290088    -0.80400
O491        O  0.49480663  0.50439418  0.40406828    -0.80500
O492        O  0.44073306  0.98104907  0.05844968    -0.80400
O493        O  0.43760823  0.98068859  0.46568809    -0.80400
O494        O  0.02364314  0.54393412  0.02590379    -0.80400
C495        C  0.50255860  0.54533052  0.05332645     1.09300
C496        C  0.43581887  0.97334939  0.42443793     1.09200
C497        C  0.48231299  0.52489911  0.42259710     1.09300
C498        C  0.42027395  0.96176922  0.05881452     1.09200
O499        O  0.48448318  0.94319534  0.09626942    -0.80400
O500        O  0.03941627  0.96670711  0.43204259    -0.80500
O501        O  0.04719795  0.49131809  0.02936222    -0.80400
O502        O  0.45344931  0.91950742  0.45808296    -0.80400
O503        O  0.49848137  0.92195645  0.43922826    -0.80400
O504        O  0.02455441  0.98491205  0.08896797    -0.80400
O505        O  0.47339279  0.91738152  0.03820910    -0.80400
O506        O  0.03941321  0.51208893  0.44832899    -0.80400
Co507      Co  0.48442184  0.98207791  0.06532559     1.51500
Co508      Co  0.49761709  0.96340920  0.42515903     1.51700
Co509      Co  0.01200005  0.50719578  0.50022309     1.51600
Co510      Co  0.45615202  0.95127883  0.50478821     1.51500
O511        O  0.49435796  0.96892112  0.49499561    -1.42300
C512        C  0.47998072  0.91873270  0.07950097     1.09200
C513        C  0.05096146  0.99156123  0.42723373     1.09300
C514        C  0.04766291  0.98788097  0.06793015     1.09300
C515        C  0.47479773  0.90823049  0.43946758     1.09200
C516        C  0.48939534  0.84682125  0.35910532    -0.20600
C517        C  0.46192137  0.84082688  0.34222840    -0.07100
C518        C  0.43847350  0.85306625  0.36314043     0.13700
C519        C  0.44322655  0.87307377  0.39814809    -0.20600
C520        C  0.47101688  0.88166133  0.41187031    -0.07100
C521        C  0.49438347  0.86706958  0.39363287     0.13700
C522        C  0.52475061  0.87304034  0.40891689    -0.24000
H523        H  0.50723480  0.83696323  0.34299444     0.15000
H524        H  0.42513542  0.88344609  0.41251510     0.15100
C525        C  0.40858111  0.84588005  0.34709047    -0.23900
H526        H  0.53946207  0.85746541  0.39430752     0.05300
H527        H  0.52639637  0.87122131  0.44672936     0.08500
H528        H  0.53219162  0.89476704  0.39724231     0.08500
H529        H  0.40419355  0.82237144  0.35085041     0.08500
H530        H  0.40601233  0.85225250  0.31060478     0.08500
H531        H  0.39259243  0.85720872  0.36720184     0.05300
C532        C  0.49451050  0.86448754  0.17548730    -0.20600
C533        C  0.46941759  0.84741723  0.17448294    -0.07100
C534        C  0.44969970  0.85138179  0.13831810     0.13700
C535        C  0.45505406  0.87331152  0.10540862    -0.20600
C536        C  0.47896399  0.89222977  0.10900880    -0.07100
C537        C  0.49931320  0.88690885  0.14371135     0.13700
C538        C  0.02628401  0.90448298  0.14724393    -0.24000
H539        H  0.00993479  0.86090815  0.20271530     0.15000
H540        H  0.43958539  0.87682369  0.07835646     0.15100
C541        C  0.42228427  0.83379660  0.13598065    -0.23900
H542        H  0.04069827  0.89643245  0.17456272     0.05300
H543        H  0.02104521  0.92685285  0.15564416     0.08500
H544        H  0.03761568  0.90365160  0.11422607     0.08500
H545        H  0.41003177  0.83655694  0.16775728     0.08500
H546        H  0.42690121  0.81073839  0.13203765     0.08500
H547        H  0.40876461  0.84043137  0.10654485     0.05300
C548        C  0.97796564  0.59737386  0.36234568    -0.20600
C549        C  0.96393399  0.58947847  0.32142570    -0.07100
C550        C  0.45090657  0.56143987  0.31888070     0.13700
C551        C  0.45634440  0.54116794  0.35354981    -0.20600
C552        C  0.47226659  0.54854448  0.39272690    -0.07100
C553        C  0.98213790  0.57726321  0.39801234     0.13700
C554        C  0.99833793  0.58651225  0.44029031    -0.24000
H555        H  0.98721404  0.61891426  0.36541674     0.15000
H556        H  0.44838825  0.51918788  0.34961022     0.15100
C557        C  0.43158095  0.55200955  0.27998925    -0.23900
H558        H  0.00473635  0.60969921  0.43877144     0.05300
H559        H  0.01792260  0.57398817  0.44413276     0.08500
H560        H  0.98477156  0.58291397  0.47076912     0.08500
H561        H  0.44175414  0.53492810  0.26037184     0.08500
H562        H  0.42621564  0.56992767  0.25642168     0.08500
H563        H  0.41118024  0.54317861  0.29394383     0.05300
C564        C  0.01295225  0.59915336  0.14795798    -0.20600
C565        C  0.98453225  0.60544484  0.15619788    -0.07100
C566        C  0.46262980  0.59597491  0.12540274     0.13700
C567        C  0.46997170  0.57898470  0.08840011    -0.20600
C568        C  0.49812434  0.57062712  0.08223928    -0.07100
C569        C  0.02017418  0.58167439  0.11131277     0.13700
C570        C  0.05052085  0.57305357  0.10659226    -0.24000
H571        H  0.02925903  0.60634466  0.17208556     0.15000
H572        H  0.45329708  0.57042503  0.06604390     0.15100
C573        C  0.43184070  0.60232623  0.13305505    -0.23900
H574        H  0.06466980  0.58321641  0.13284769     0.05300
H575        H  0.05849933  0.57981872  0.07241684     0.08500
H576        H  0.05173237  0.54936951  0.11072698     0.08500
H577        H  0.42920151  0.62595049  0.13336468     0.08500
H578        H  0.42481474  0.59288931  0.16628615     0.08500
H579        H  0.41780403  0.59318429  0.10574153     0.05300
C580        C  0.47939879  0.73621171  0.27779008    -0.20600
C581        C  0.45815729  0.75010323  0.25250624    -0.07100
C582        C  0.43775783  0.73333114  0.22778788     0.13700
C583        C  0.43982199  0.70322275  0.22762211    -0.20600
C584        C  0.46138511  0.68945826  0.25228071    -0.07100
C585        C  0.98163519  0.70615509  0.27785308     0.13700
C586        C  0.00561616  0.69252078  0.30402797    -0.24000
H587        H  0.99515636  0.74909181  0.29683506     0.15000
H588        H  0.42459017  0.69028940  0.20803117     0.15100
C589        C  0.41330842  0.74692332  0.20279873    -0.23900
H590        H  0.01986828  0.70889789  0.32059506     0.05300
H591        H  0.01859172  0.67996264  0.28046403     0.08500
H592        H  0.99696475  0.67806560  0.33131828     0.08500
H593        H  0.42126489  0.76090804  0.17446330     0.08500
H594        H  0.40111717  0.75990996  0.22686521     0.08500
H595        H  0.39847002  0.73046746  0.18775479     0.05300
C596        C  0.37056673  0.00023454  0.36035694    -0.20600
C597        C  0.36552188  0.97708344  0.33060170    -0.07100
C598        C  0.38034297  0.95146113  0.33756074     0.13700
C599        C  0.40207512  0.95076960  0.37040731    -0.20600
C600        C  0.40907204  0.97471940  0.39745094    -0.07100
C601        C  0.39195624  0.99911648  0.39454269     0.13700
C602        C  0.39665733  0.02409861  0.42617997    -0.24000
H603        H  0.35861574  0.01959835  0.35556443     0.15000
H604        H  0.41436299  0.93153545  0.37404249     0.15100
C605        C  0.37352145  0.92480809  0.31011741    -0.23900
H606        H  0.38180436  0.04162939  0.41833862     0.05300
H607        H  0.41598471  0.53172449  0.42872387     0.08500
H608        H  0.39310671  0.01679674  0.46200323     0.08500
H609        H  0.37830905  0.92860457  0.27349389     0.08500
H610        H  0.35064996  0.91860321  0.31375877     0.08500
H611        H  0.38620282  0.90635372  0.32197360     0.05300
C612        C  0.39291992  0.99472470  0.10604704    -0.20600
C613        C  0.39560585  0.96675559  0.08887268    -0.07100
C614        C  0.37774062  0.94418810  0.10651478     0.13700
C615        C  0.35939096  0.94983779  0.14271119    -0.20600
C616        C  0.35888439  0.97718719  0.16211865    -0.07100
C617        C  0.37518573  0.00007222  0.14287992     0.13700
C618        C  0.37459540  0.02992059  0.16225697    -0.24000
H619        H  0.40600337  0.01235564  0.09236684     0.15000
H620        H  0.34671239  0.93241926  0.15796118     0.15100
C621        C  0.37908550  0.91380909  0.08979368    -0.23900
H622        H  0.38833500  0.04543222  0.14268434     0.05300
H623        H  0.38233621  0.02972698  0.19824416     0.08500
H624        H  0.35249776  0.03763293  0.16102980     0.08500
H625        H  0.40069012  0.90569045  0.09610656     0.08500
H626        H  0.37385923  0.91314179  0.05272305     0.08500
H627        H  0.36374692  0.89906757  0.10777892     0.05300
C628        C  0.09213954  0.97115143  0.38838568    -0.20600
C629        C  0.07605439  0.99543789  0.39698434    -0.07100
C630        C  0.08206377  0.02128952  0.37196252     0.13700
C631        C  0.10297357  0.02157222  0.33797716    -0.20600
C632        C  0.11772612  0.99677984  0.32801982    -0.07100
C633        C  0.11254087  0.97139118  0.35382870     0.13700
C634        C  0.12718343  0.94399856  0.34292690    -0.24000
H635        H  0.08773276  0.95132840  0.40727804     0.15000
H636        H  0.10682029  0.04080756  0.31731603     0.15100
C637        C  0.06550962  0.04813092  0.37845872    -0.23900
H638        H  0.12013510  0.92589901  0.36568526     0.05300
H639        H  0.15054237  0.94720829  0.34725573     0.08500
H640        H  0.12572255  0.43724775  0.31540124     0.08500
H641        H  0.06842458  0.05579954  0.41401047     0.08500
H642        H  0.04051025  0.54062609  0.37006344     0.08500
H643        H  0.07275991  0.06586894  0.35514004     0.05300
C644        C  0.07653569  0.96290093  0.12497304    -0.20600
C645        C  0.07495365  0.98548233  0.09329896    -0.07100
C646        C  0.09759734  0.50410432  0.09537436     0.13700
C647        C  0.11897667  0.50351066  0.12951958    -0.20600
C648        C  0.11805756  0.98497681  0.16099284    -0.07100
C649        C  0.09768415  0.96211991  0.15865040     0.13700
C650        C  0.09698187  0.93716565  0.19215708    -0.24000
H651        H  0.06035989  0.94623219  0.12431112     0.15000
H652        H  0.13543893  0.52040111  0.13017827     0.15100
C653        C  0.10007818  0.52780268  0.05984215    -0.23900
H654        H  0.09755114  0.91667673  0.17320253     0.05300
H655        H  0.07704790  0.93731163  0.21213746     0.08500
H656        H  0.11534547  0.93763569  0.21626452     0.08500
H657        H  0.08175525  0.52874050  0.03606106     0.08500
H658        H  0.11948335  0.52485394  0.03938796     0.08500
H659        H  0.10223490  0.54891261  0.07697125     0.05300
C660        C  0.22278173  0.96616211  0.26862198    -0.20600
C661        C  0.21060523  0.99015754  0.24756578    -0.07100
C662        C  0.22797049  0.51445072  0.23685163     0.13700
C663        C  0.25794387  0.00967765  0.23114535    -0.20600
C664        C  0.27019497  0.98567279  0.25209147    -0.07100
C665        C  0.25242932  0.96346596  0.27065489     0.13700
C666        C  0.26455867  0.93642796  0.29076869    -0.24000
H667        H  0.20896578  0.94926112  0.28278549     0.15000
H668        H  0.27087000  0.53108624  0.22700364     0.15100
C669        C  0.21460767  0.54201299  0.22154967    -0.23900
H670        H  0.24753084  0.92071419  0.30142389     0.05300
H671        H  0.27777222  0.94156621  0.32138244     0.08500
H672        H  0.27781791  0.92600567  0.26498827     0.08500
H673        H  0.20133414  0.55018817  0.24938526     0.08500
H674        H  0.20102839  0.53809978  0.19083316     0.08500
H675        H  0.23091142  0.55892865  0.21270495     0.05300
C676        C  0.17947311  0.99287826  0.74628551     0.02900
C677        C  0.16474186  0.99013426  0.70437669    -0.13300
C678        C  0.13556560  0.49043529  0.70462491     0.00400
C679        C  0.12075634  0.49451562  0.74520097    -0.11800
C680        C  0.13517367  0.49690837  0.78705485     0.02900
C681        C  0.16421068  0.99584308  0.78690670    -0.11200
H682        H  0.17630136  0.98665230  0.67321090     0.08500
H683        H  0.09768107  0.49443390  0.74448595     0.06000
H684        H  0.17541089  0.99706382  0.81944023     0.05800
C685        C  0.30171335  0.98455107  0.75051002     0.02900
C686        C  0.31476604  0.98288140  0.70771906    -0.13300
C687        C  0.34428001  0.98100860  0.70489762     0.00400
C688        C  0.36082192  0.98074561  0.74491417    -0.11800
C689        C  0.34809752  0.98141290  0.78796286     0.02900
C690        C  0.31850029  0.98401177  0.79072110    -0.11200
H691        H  0.30194462  0.98286136  0.67668486     0.08500
H692        H  0.38371101  0.97905404  0.74255759     0.06000
H693        H  0.30858884  0.98510740  0.82386033     0.05600
C694        C  0.46390235  0.65809388  0.74825843     0.02900
C695        C  0.97080579  0.64672840  0.70513456    -0.13300
C696        C  0.97550356  0.61734513  0.70099062     0.00400
C697        C  0.97306144  0.59919521  0.73941724    -0.11800
C698        C  0.96475911  0.60976547  0.78185384     0.02900
C699        C  0.96031117  0.63943416  0.78575259    -0.11200
H700        H  0.47331620  0.66091059  0.67615224     0.08500
H701        H  0.97772230  0.57665507  0.73612685     0.06000
H702        H  0.45445546  0.64812708  0.81893197     0.05800
C703        C  0.45841573  0.78220226  0.75305865     0.02900
C704        C  0.46223397  0.79868225  0.71258819    -0.13300
C705        C  0.46444727  0.82886073  0.71434530     0.00400
C706        C  0.46315399  0.84234605  0.75675158    -0.11800
C707        C  0.46005241  0.82621250  0.79714284     0.02900
C708        C  0.45750715  0.79621862  0.79530657    -0.11200
H709        H  0.46482262  0.78808061  0.68025689     0.08500
H710        H  0.46562942  0.86557527  0.75852351     0.06000
H711        H  0.45567411  0.78376986  0.82678684     0.05800
O712        O  0.48285293  0.52430778  0.55535024    -0.80400
O713        O  0.45630325  0.96082249  0.90724911    -0.80400
O714        O  0.98187628  0.52578647  0.96531227    -0.80400
O715        O  0.41974350  0.94171609  0.52900450    -0.80400
O716        O  0.49613269  0.50458668  0.90411491    -0.80500
O717        O  0.44182231  0.97810179  0.56533421    -0.80400
O718        O  0.43680158  0.97924025  0.96677828    -0.80400
O719        O  0.02251660  0.54393165  0.52564038    -0.80400
C720        C  0.50168084  0.54509370  0.55371721     1.09300
C721        C  0.43537318  0.97264514  0.92514761     1.09200
C722        C  0.48369365  0.52511328  0.92268966     1.09300
C723        C  0.41946129  0.96175637  0.55812932     1.09200
O724        O  0.48874173  0.94222879  0.59467833    -0.80400
O725        O  0.03933258  0.96685315  0.93205631    -0.80500
O726        O  0.04656124  0.49151993  0.52825774    -0.80400
O727        O  0.45366593  0.91889685  0.95835329    -0.80400
O728        O  0.49856410  0.92202449  0.93910760    -0.80400
O729        O  0.02536678  0.98541501  0.58860486    -0.80400
O730        O  0.47044100  0.91777328  0.53918457    -0.80400
O731        O  0.04063420  0.51225328  0.94868564    -0.80400
Co732      Co  0.48575086  0.98126954  0.56598475     1.51500
Co733      Co  0.49742766  0.96349013  0.92512961     1.51700
Co734      Co  0.01305129  0.50728518  0.00054923     1.51600
Co735      Co  0.45692068  0.95033153  0.00526513     1.51500
O736        O  0.49435279  0.96923190  0.99481282    -1.42300
C737        C  0.48073827  0.91837706  0.57868175     1.09200
C738        C  0.05083673  0.99170574  0.92723118     1.09300
C739        C  0.04831283  0.98814306  0.56724170     1.09300
C740        C  0.47502817  0.90804479  0.93924390     1.09200
C741        C  0.49016829  0.84727526  0.85818720    -0.20600
C742        C  0.46276152  0.84123119  0.84108621    -0.07100
C743        C  0.43917931  0.85327992  0.86189117     0.13700
C744        C  0.44373436  0.87311026  0.89716952    -0.20600
C745        C  0.47145132  0.88169235  0.91123665    -0.07100
C746        C  0.49495435  0.86734396  0.89299891     0.13700
C747        C  0.52524265  0.87336059  0.90866144    -0.24000
H748        H  0.50810089  0.83754981  0.84212953     0.15000
H749        H  0.42555669  0.88335381  0.91150396     0.15100
C750        C  0.40936559  0.84610534  0.84544475    -0.23900
H751        H  0.54008044  0.85793838  0.89397625     0.05300
H752        H  0.52674594  0.87133517  0.94646520     0.08500
H753        H  0.53264112  0.89517948  0.89736740     0.08500
H754        H  0.40499989  0.82257885  0.84892717     0.08500
H755        H  0.40695107  0.85262061  0.80899344     0.08500
H756        H  0.39326483  0.85732967  0.86547967     0.05300
C757        C  0.49622393  0.86353013  0.67334057    -0.20600
C758        C  0.47076908  0.84701255  0.67332087    -0.07100
C759        C  0.45057922  0.85136292  0.63802766     0.13700
C760        C  0.45579203  0.87322059  0.60506358    -0.20600
C761        C  0.48010094  0.89169252  0.60770752    -0.07100
C762        C  0.50097893  0.88591335  0.64144984     0.13700
C763        C  0.02758841  0.90360014  0.64514579    -0.24000
H764        H  0.01114492  0.86015955  0.70089995     0.15000
H765        H  0.43983749  0.87712662  0.57890653     0.15100
C766        C  0.42280998  0.83430966  0.63677952    -0.23900
H767        H  0.04225007  0.89513420  0.67177814     0.05300
H768        H  0.02272071  0.92592736  0.65437558     0.08500
H769        H  0.03853404  0.90307398  0.61175636     0.08500
H770        H  0.41110872  0.83734201  0.66902256     0.08500
H771        H  0.42691416  0.81114493  0.63270286     0.08500
H772        H  0.40898434  0.84117609  0.60785897     0.05300
C773        C  0.97857420  0.59769641  0.86240396    -0.20600
C774        C  0.96344492  0.58990864  0.82242356    -0.07100
C775        C  0.45075184  0.56191384  0.82047674     0.13700
C776        C  0.45687951  0.54150147  0.85457797    -0.20600
C777        C  0.47347904  0.54877059  0.89306609    -0.07100
C778        C  0.98339745  0.57756058  0.89781273     0.13700
C779        C  0.00059105  0.58669861  0.93916774    -0.24000
H780        H  0.98811733  0.61915022  0.86484856     0.15000
H781        H  0.44882527  0.51954732  0.85081077     0.15100
C782        C  0.43051936  0.55274530  0.78261571    -0.23900
H783        H  0.00728240  0.60979840  0.93716788     0.05300
H784        H  0.02003285  0.57389136  0.94212300     0.08500
H785        H  0.98762040  0.58337599  0.97036753     0.08500
H786        H  0.44008318  0.53562006  0.76229062     0.08500
H787        H  0.42483592  0.57078554  0.75948998     0.08500
H788        H  0.41036942  0.54406674  0.79766708     0.05300
C789        C  0.01152245  0.59787424  0.64967168    -0.20600
C790        C  0.98317118  0.60494484  0.65673784    -0.07100
C791        C  0.46214773  0.59681825  0.62487345     0.13700
C792        C  0.46951334  0.57960014  0.58807231    -0.20600
C793        C  0.49741135  0.57018043  0.58316882    -0.07100
C794        C  0.01893328  0.58049518  0.61301398     0.13700
C795        C  0.04914521  0.57126876  0.60926900    -0.24000
H796        H  0.02759290  0.60449602  0.67458582     0.15000
H797        H  0.45302138  0.57187533  0.56466262     0.15100
C798        C  0.43160927  0.60476213  0.63072025    -0.23900
H799        H  0.06307045  0.58080296  0.63639364     0.05300
H800        H  0.05773727  0.57834112  0.57563846     0.08500
H801        H  0.04986123  0.54750568  0.61262832     0.08500
H802        H  0.43015848  0.62853376  0.63090623     0.08500
H803        H  0.42339225  0.59569551  0.66349274     0.08500
H804        H  0.41777521  0.59633883  0.60258761     0.05300
C805        C  0.47976591  0.73636412  0.77763478    -0.20600
C806        C  0.45857406  0.75028103  0.75230716    -0.07100
C807        C  0.43807184  0.73357462  0.72772353     0.13700
C808        C  0.43990613  0.70345184  0.72791057    -0.20600
C809        C  0.46141621  0.68963518  0.75261763    -0.07100
C810        C  0.98147104  0.70626079  0.77734124     0.13700
C811        C  0.00559674  0.69254901  0.80303765    -0.24000
H812        H  0.99532049  0.74915373  0.79606578     0.15000
H813        H  0.42456481  0.69054679  0.70848773     0.15100
C814        C  0.41380324  0.74726645  0.70240596    -0.23900
H815        H  0.02006372  0.70888625  0.81924540     0.05300
H816        H  0.01830856  0.67990489  0.77921480     0.08500
H817        H  0.99712529  0.67816924  0.83055964     0.08500
H818        H  0.42195117  0.76103327  0.67394413     0.08500
H819        H  0.40167614  0.76049826  0.72620910     0.08500
H820        H  0.39886091  0.73086325  0.68747463     0.05300
C821        C  0.37081162  0.00024007  0.85992633    -0.20600
C822        C  0.36618146  0.97747360  0.82925688    -0.07100
C823        C  0.38103479  0.95182505  0.83587114     0.13700
C824        C  0.40227110  0.95072728  0.86951982    -0.20600
C825        C  0.40884444  0.97429593  0.89760530    -0.07100
C826        C  0.39179398  0.99873943  0.89475181     0.13700
C827        C  0.39617005  0.02338002  0.92714363    -0.24000
H828        H  0.35882198  0.01960336  0.85544874     0.15000
H829        H  0.41455483  0.93147766  0.87297049     0.15100
C830        C  0.37471262  0.92549836  0.80740252    -0.23900
H831        H  0.38144164  0.04101928  0.91929914     0.05300
H832        H  0.41662560  0.53183933  0.92852562     0.08500
H833        H  0.39219392  0.01571867  0.96267077     0.08500
H834        H  0.38015169  0.92970858  0.77112733     0.08500
H835        H  0.35179033  0.91923098  0.80986789     0.08500
H836        H  0.38720838  0.90691400  0.81928210     0.05300
C837        C  0.39171295  0.99518670  0.60339460    -0.20600
C838        C  0.39422319  0.96718247  0.58642699    -0.07100
C839        C  0.37652251  0.94466288  0.60446844     0.13700
C840        C  0.35848621  0.95037270  0.64105305    -0.20600
C841        C  0.35827085  0.97774687  0.66049732    -0.07100
C842        C  0.37436250  0.00060684  0.64069273     0.13700
C843        C  0.37409155  0.03044995  0.66010313    -0.24000
H844        H  0.40493028  0.01264327  0.58944265     0.15000
H845        H  0.34597359  0.93296718  0.65667447     0.15100
C846        C  0.37808576  0.91423081  0.58803460    -0.23900
H847        H  0.38762525  0.04589860  0.64008081     0.05300
H848        H  0.38227230  0.03023958  0.69584723     0.08500
H849        H  0.35201480  0.03822543  0.65957066     0.08500
H850        H  0.39985248  0.90637372  0.59390416     0.08500
H851        H  0.37261622  0.91337335  0.55106246     0.08500
H852        H  0.36303563  0.89941357  0.60647753     0.05300
C853        C  0.09180856  0.97130997  0.88772906    -0.20600
C854        C  0.07585650  0.99562670  0.89677453    -0.07100
C855        C  0.08192716  0.02156948  0.87201401     0.13700
C856        C  0.10282488  0.02194868  0.83797651    -0.20600
C857        C  0.11748891  0.99715681  0.82766145    -0.07100
C858        C  0.11216436  0.97164215  0.85308525     0.13700
C859        C  0.12663477  0.94423508  0.84170212    -0.24000
H860        H  0.08734370  0.95140099  0.90635702     0.15000
H861        H  0.10675233  0.04128373  0.81758940     0.15100
C862        C  0.06545608  0.04842689  0.87885917    -0.23900
H863        H  0.11952161  0.92603826  0.86421623     0.05300
H864        H  0.15001376  0.94729340  0.84596287     0.08500
H865        H  0.12429771  0.43826123  0.80951727     0.08500
H866        H  0.06841025  0.05592955  0.91449612     0.08500
H867        H  0.04165867  0.54194121  0.87186110     0.08500
H868        H  0.07273836  0.06624722  0.85572201     0.05300
C869        C  0.07761711  0.96309653  0.62363278    -0.20600
C870        C  0.07568951  0.98588595  0.59237067    -0.07100
C871        C  0.09750636  0.50535718  0.59298324     0.13700
C872        C  0.11915913  0.50528356  0.62677362    -0.20600
C873        C  0.11856621  0.98580949  0.66046731    -0.07100
C874        C  0.09866247  0.96255211  0.65753016     0.13700
C875        C  0.09834551  0.93739756  0.69064242    -0.24000
H876        H  0.06174366  0.94606480  0.62254673     0.15000
H877        H  0.13518493  0.52258275  0.62724178     0.15100
C878        C  0.09926755  0.52899937  0.55727669    -0.23900
H879        H  0.09945513  0.91706797  0.67137896     0.05300
H880        H  0.07829946  0.93696641  0.71038443     0.08500
H881        H  0.11658798  0.93812731  0.71497999     0.08500
H882        H  0.08077874  0.52944279  0.53376645     0.08500
H883        H  0.11861857  0.52641963  0.53652912     0.08500
H884        H  0.10109653  0.55017596  0.57423657     0.05300
C885        C  0.22302561  0.96742791  0.76919734    -0.20600
C886        C  0.21080483  0.99135492  0.74798736    -0.07100
C887        C  0.22904223  0.51577187  0.73474172     0.13700
C888        C  0.25814805  0.01083324  0.73133035    -0.20600
C889        C  0.27043502  0.98684594  0.75228056    -0.07100
C890        C  0.25268239  0.96471804  0.77111356     0.13700
C891        C  0.26482707  0.93771534  0.79132805    -0.24000
H892        H  0.20923241  0.95054911  0.78347882     0.15000
H893        H  0.27228688  0.53134163  0.72481865     0.15100
C894        C  0.21636180  0.54322656  0.71740445    -0.23900
H895        H  0.24780866  0.92204771  0.80218124     0.05300
H896        H  0.27811104  0.94292010  0.82183723     0.08500
H897        H  0.27801589  0.92720743  0.76554361     0.08500
H898        H  0.20294318  0.55229657  0.74429626     0.08500
H899        H  0.20307786  0.53887088  0.68651897     0.08500
H900        H  0.23306265  0.55964481  0.70812476     0.05300
C901        C  0.67960978  0.49151607  0.24966093     0.02900
C902        C  0.66447770  0.48829969  0.20816050    -0.13300
C903        C  0.63466629  0.99015745  0.20312974     0.00400
C904        C  0.61994008  0.99459072  0.24364230    -0.11800
C905        C  0.63442929  0.99655810  0.28547432     0.02900
C906        C  0.66479078  0.49489915  0.29057990    -0.11200
H907        H  0.67579676  0.48488356  0.17674350     0.08500
H908        H  0.59688766  0.99509443  0.24288588     0.06000
H909        H  0.67634292  0.49666114  0.32273849     0.05800
C910        C  0.80205835  0.48649714  0.24910360     0.02900
C911        C  0.81462889  0.48536620  0.20587091    -0.13300
C912        C  0.84415744  0.48391667  0.20219490     0.00400
C913        C  0.86115509  0.48395321  0.24172896    -0.11800
C914        C  0.84889950  0.48362187  0.28519444     0.02900
C915        C  0.81925637  0.48555614  0.28883766    -0.11200
H916        H  0.80142439  0.48512643  0.17525279     0.08500
H917        H  0.88405760  0.48288288  0.23861626     0.06000
H918        H  0.80957562  0.48559343  0.32226024     0.05600
C919        C  0.96290826  0.15789864  0.24597313     0.02900
C920        C  0.46987836  0.14695179  0.20284834    -0.13300
C921        C  0.47477179  0.11766645  0.19816303     0.00400
C922        C  0.47232948  0.09916694  0.23616850    -0.11800
C923        C  0.46388354  0.10935681  0.27876416     0.02900
C924        C  0.45916444  0.13892658  0.28320268    -0.11200
H925        H  0.97270262  0.16142097  0.17406691     0.08500
H926        H  0.47708263  0.07668201  0.23241442     0.06000
H927        H  0.95312683  0.14729670  0.31626458     0.05800
C928        C  0.95439794  0.28160363  0.25258087     0.02900
C929        C  0.95750268  0.29807609  0.21194285    -0.13300
C930        C  0.95854054  0.32828464  0.21342288     0.00400
C931        C  0.95651493  0.34179858  0.25572113    -0.11800
C932        C  0.95458186  0.32573134  0.29633437     0.02900
C933        C  0.95335697  0.29567066  0.29478171    -0.11200
H934        H  0.96060973  0.28746195  0.17975781     0.08500
H935        H  0.95823073  0.36508056  0.25732247     0.06000
H936        H  0.95246059  0.28326111  0.32639036     0.05800
O937        O  0.98276425  0.02521945  0.05179724    -0.80400
O938        O  0.95661776  0.46114431  0.40674206    -0.80400
O939        O  0.48047074  0.02570381  0.46269557    -0.80400
O940        O  0.92118725  0.44032478  0.03130860    -0.80400
O941        O  0.99473666  0.00402625  0.40180298    -0.80500
O942        O  0.94052478  0.48122815  0.05740182    -0.80400
O943        O  0.93643729  0.47911604  0.46603627    -0.80400
O944        O  0.52217330  0.04517212  0.02270163    -0.80400
C945        C  0.00146079  0.04611496  0.05051297     1.09300
C946        C  0.93547432  0.47279889  0.42419904     1.09200
C947        C  0.98247407  0.02480421  0.41988583     1.09300
C948        C  0.91983096  0.46218936  0.05687048     1.09200
O949        O  0.98264856  0.44216416  0.09631451    -0.80400
O950        O  0.53926788  0.46642715  0.43369509    -0.80500
O951        O  0.54680709  0.99303214  0.02590114    -0.80400
O952        O  0.95274326  0.41896260  0.45738795    -0.80400
O953        O  0.99769784  0.42130604  0.43795494    -0.80400
O954        O  0.52362409  0.48290641  0.09162264    -0.80400
O955        O  0.97288147  0.41680356  0.03728646    -0.80400
O956        O  0.53936937  0.01292430  0.44551522    -0.80400
Co957      Co  0.98410360  0.48127583  0.06621380     1.51500
Co958      Co  0.99745313  0.46319616  0.42575592     1.51700
Co959      Co  0.51210669  0.00789148  0.49770534     1.51600
Co960      Co  0.95620880  0.44996301  0.50476485     1.51500
O961        O  0.99396840  0.46849072  0.49552940    -1.42300
C962        C  0.97845851  0.41784334  0.07891389     1.09200
C963        C  0.55089323  0.49129084  0.42988645     1.09300
C964        C  0.54713762  0.48586393  0.07164931     1.09300
C965        C  0.97378099  0.40787346  0.43776953     1.09200
C966        C  0.98600178  0.34638259  0.35607458    -0.20600
C967        C  0.95822705  0.34102666  0.33994753    -0.07100
C968        C  0.93537808  0.35427510  0.36090776     0.13700
C969        C  0.94103514  0.37421106  0.39570687    -0.20600
C970        C  0.96915973  0.38186269  0.40909828    -0.07100
C971        C  0.99190103  0.36670430  0.39020042     0.13700
C972        C  0.02252323  0.37209707  0.40447597    -0.24000
H973        H  0.00338217  0.33592129  0.33968001     0.15000
H974        H  0.92338296  0.38517648  0.41032921     0.15100
C975        C  0.90518586  0.34813453  0.34529460    -0.23900
H976        H  0.03678173  0.35642079  0.38900666     0.05300
H977        H  0.02465963  0.36998440  0.44219588     0.08500
H978        H  0.03007681  0.39382518  0.39298096     0.08500
H979        H  0.89991424  0.32481724  0.34956682     0.08500
H980        H  0.90268772  0.35430530  0.30871462     0.08500
H981        H  0.88975869  0.36029405  0.36529001     0.05300
C982        C  0.99079796  0.36366816  0.17537890    -0.20600
C983        C  0.96580269  0.34651512  0.17283089    -0.07100
C984        C  0.94709548  0.35013975  0.13521174     0.13700
C985        C  0.95315180  0.37210327  0.10263506    -0.20600
C986        C  0.97681162  0.39121260  0.10792620    -0.07100
C987        C  0.99631627  0.38603248  0.14387431     0.13700
C988        C  0.52269525  0.40393207  0.14884140    -0.24000
H989        H  0.50523579  0.36026502  0.20315833     0.15000
H990        H  0.93836715  0.37551605  0.07454944     0.15100
C991        C  0.92004963  0.33210845  0.13085624    -0.23900
H992        H  0.53653212  0.39591776  0.17696739     0.05300
H993        H  0.51701655  0.42619138  0.15714101     0.08500
H994        H  0.53488058  0.40349976  0.11658567     0.08500
H995        H  0.90675895  0.33473388  0.16155334     0.08500
H996        H  0.92517497  0.30912568  0.12754225     0.08500
H997        H  0.90735744  0.33844181  0.10030260     0.05300
C998        C  0.47776485  0.09716512  0.35909455    -0.20600
C999        C  0.46275272  0.08931550  0.31904741    -0.07100
C1000       C  0.95018324  0.06128852  0.31678346     0.13700
C1001       C  0.95623893  0.04094994  0.35103096    -0.20600
C1002       C  0.97266787  0.04833622  0.38968209    -0.07100
C1003       C  0.48252064  0.07710579  0.39458853     0.13700
C1004       C  0.49965457  0.08633394  0.43595276    -0.24000
H1005       H  0.48722674  0.11865165  0.36158151     0.15000
H1006       H  0.94813551  0.01899327  0.34740851     0.15100
C1007       C  0.93007569  0.05203583  0.27879872    -0.23900
H1008       H  0.50639120  0.10941806  0.43381947     0.05300
H1009       H  0.51907713  0.07350793  0.43907230     0.08500
H1010       H  0.48662918  0.08312630  0.46711200     0.08500
H1011       H  0.93972616  0.03489755  0.25861089     0.08500
H1012       H  0.92444068  0.07003010  0.25555733     0.08500
H1013       H  0.90988856  0.04334797  0.29371784     0.05300
C1014       C  0.51067836  0.10071502  0.14422850    -0.20600
C1015       C  0.48208493  0.10566148  0.15354547    -0.07100
C1016       C  0.96077231  0.09516074  0.12419703     0.13700
C1017       C  0.96817143  0.07838093  0.08702125    -0.20600
C1018       C  0.99656531  0.07122589  0.07960037    -0.07100
C1019       C  0.51816500  0.08349489  0.10739897     0.13700
C1020       C  0.54882522  0.07626245  0.10154090    -0.24000
H1021       H  0.52700333  0.10872368  0.16768790     0.15000
H1022       H  0.95144498  0.06904501  0.06553706     0.15100
C1023       C  0.92985971  0.10019036  0.13328118    -0.23900
H1024       H  0.56290792  0.08720017  0.12710545     0.05300
H1025       H  0.55600601  0.08316181  0.06696675     0.08500
H1026       H  0.55114484  0.05271317  0.10591887     0.08500
H1027       H  0.92623341  0.12364936  0.13354021     0.08500
H1028       H  0.92383677  0.09061959  0.16692020     0.08500
H1029       H  0.91571625  0.09034328  0.10672366     0.05300
C1030       C  0.97717141  0.23624205  0.27634035    -0.20600
C1031       C  0.95534784  0.24972671  0.25180798    -0.07100
C1032       C  0.93492524  0.23264353  0.22771744     0.13700
C1033       C  0.93757122  0.20263597  0.22718113    -0.20600
C1034       C  0.95974586  0.18927887  0.25090487    -0.07100
C1035       C  0.47961702  0.20616246  0.27530621     0.13700
C1036       C  0.50421387  0.19278834  0.30027191    -0.24000
H1037       H  0.49285134  0.24926088  0.29396747     0.15000
H1038       H  0.92231328  0.18946230  0.20803954     0.15100
C1039       C  0.90986082  0.24582027  0.20378359    -0.23900
H1040       H  0.51848379  0.20929839  0.31647180     0.05300
H1041       H  0.51698504  0.18055910  0.27597232     0.08500
H1042       H  0.49620563  0.17805256  0.32769365     0.08500
H1043       H  0.91715143  0.26013710  0.17539327     0.08500
H1044       H  0.89773041  0.25839552  0.22849233     0.08500
H1045       H  0.89515840  0.22914151  0.18902097     0.05300
C1046       C  0.87068673  0.50052563  0.35917602    -0.20600
C1047       C  0.86743074  0.47904583  0.32590150    -0.07100
C1048       C  0.88351066  0.45398349  0.33010127     0.13700
C1049       C  0.90423944  0.45231469  0.36449288    -0.20600
C1050       C  0.90939355  0.47476547  0.39543327    -0.07100
C1051       C  0.89140985  0.49852461  0.39436772     0.13700
C1052       C  0.89464007  0.52206668  0.42896280    -0.24000
H1053       H  0.85780482  0.51938570  0.35651799     0.15000
H1054       H  0.91723862  0.43349613  0.36634799     0.15100
C1055       C  0.87895983  0.42874753  0.29856263    -0.23900
H1056       H  0.87917675  0.53925701  0.42258414     0.05300
H1057       H  0.91861985  0.03290063  0.42361728     0.08500
H1058       H  0.89085547  0.51301498  0.46375971     0.08500
H1059       H  0.88523781  0.43460852  0.26318673     0.08500
H1060       H  0.85623300  0.42150131  0.29882511     0.08500
H1061       H  0.89188921  0.41022200  0.30933159     0.05300
C1062       C  0.89067825  0.49612673  0.09916523    -0.20600
C1063       C  0.89465778  0.46759765  0.08548254    -0.07100
C1064       C  0.87791477  0.44512682  0.10588703     0.13700
C1065       C  0.85941502  0.45158129  0.14147920    -0.20600
C1066       C  0.85775200  0.47968754  0.15771022    -0.07100
C1067       C  0.87284046  0.50234241  0.13552384     0.13700
C1068       C  0.87107172  0.53287583  0.15157954    -0.24000
H1069       H  0.90300750  0.51357960  0.08331625     0.15000
H1070       H  0.84774974  0.43432208  0.15903923     0.15100
C1071       C  0.88097659  0.41414020  0.09316272    -0.23900
H1072       H  0.88410676  0.54806725  0.13023094     0.05300
H1073       H  0.87893197  0.53450966  0.18741023     0.08500
H1074       H  0.84863235  0.53956986  0.14976733     0.08500
H1075       H  0.90308176  0.40767229  0.10030138     0.08500
H1076       H  0.87574902  0.41127314  0.05638310     0.08500
H1077       H  0.86651871  0.39951682  0.11311975     0.05300
C1078       C  0.59324531  0.47162594  0.39359541    -0.20600
C1079       C  0.57619803  0.49544392  0.40034601    -0.07100
C1080       C  0.58141980  0.52090088  0.37399463     0.13700
C1081       C  0.60262762  0.52122178  0.34051474    -0.20600
C1082       C  0.61837133  0.49678988  0.33227220    -0.07100
C1083       C  0.61391527  0.47183729  0.35946334     0.13700
C1084       C  0.62952543  0.44474238  0.35036229    -0.24000
H1085       H  0.58933730  0.45211084  0.41353362     0.15000
H1086       H  0.60585416  0.54007166  0.31874171     0.15100
C1087       C  0.56361727  0.54710160  0.37839472    -0.23900
H1088       H  0.62289651  0.42693117  0.37398473     0.05300
H1089       H  0.65276037  0.44880412  0.35493201     0.08500
H1090       H  0.62242920  0.93804304  0.30710428     0.08500
H1091       H  0.56591196  0.55579358  0.41342233     0.08500
H1092       H  0.54213414  0.04351799  0.37058857     0.08500
H1093       H  0.57026684  0.56451321  0.35404546     0.05300
C1094       C  0.57509839  0.46184927  0.13147040    -0.20600
C1095       C  0.57412173  0.48361706  0.09821884    -0.07100
C1096       C  0.59764003  0.00651036  0.09140968     0.13700
C1097       C  0.61896476  0.00594121  0.12561969    -0.20600
C1098       C  0.61762962  0.48327634  0.16565805    -0.07100
C1099       C  0.59654411  0.46100806  0.16471352     0.13700
C1100       C  0.59554330  0.43653985  0.19912488    -0.24000
H1101       H  0.55830707  0.44571322  0.13232176     0.15000
H1102       H  0.63513790  0.02308717  0.12681563     0.15100
C1103       C  0.59964753  0.03052384  0.05637029    -0.23900
H1104       H  0.59533345  0.41575210  0.18088279     0.05300
H1105       H  0.57587293  0.43751684  0.21962390     0.08500
H1106       H  0.61418393  0.43681515  0.22267747     0.08500
H1107       H  0.58143217  0.03095882  0.03227372     0.08500
H1108       H  0.61928783  0.02833622  0.03617529     0.08500
H1109       H  0.60102160  0.05153604  0.07389762     0.05300
C1110       C  0.72402297  0.46571727  0.26610841    -0.20600
C1111       C  0.71098017  0.49075507  0.25047803    -0.07100
C1112       C  0.72831793  0.01228132  0.22853093     0.13700
C1113       C  0.75765418  0.51288602  0.23671956    -0.20600
C1114       C  0.77075591  0.48780195  0.25204274    -0.07100
C1115       C  0.75379310  0.46385857  0.26668189     0.13700
C1116       C  0.76701509  0.43606440  0.28123719    -0.24000
H1117       H  0.71081684  0.44743485  0.27713097     0.15000
H1118       H  0.77170078  0.02654774  0.21659203     0.15100
C1119       C  0.71610478  0.03857349  0.20608519    -0.23900
H1120       H  0.75062125  0.41922941  0.29005333     0.05300
H1121       H  0.78080265  0.43956524  0.31180550     0.08500
H1122       H  0.77999457  0.42793794  0.25299373     0.08500
H1123       H  0.70254849  0.04964890  0.23070380     0.08500
H1124       H  0.70312510  0.03232097  0.17569774     0.08500
H1125       H  0.73307107  0.05408164  0.19450781     0.05300
C1126       C  0.68005143  0.49298571  0.74804526     0.02900
C1127       C  0.66528549  0.48986863  0.70614794    -0.13300
C1128       C  0.63511352  0.99133839  0.70271406     0.00400
C1129       C  0.62013617  0.99530453  0.74314068    -0.11800
C1130       C  0.63441008  0.99709956  0.78520036     0.02900
C1131       C  0.66482360  0.49596007  0.78866576    -0.11200
H1132       H  0.67690913  0.48667686  0.67495358     0.08500
H1133       H  0.59707673  0.99559523  0.74210408     0.06000
H1134       H  0.67608727  0.49758896  0.82110203     0.05800
C1135       C  0.80235091  0.48565789  0.75134168     0.02900
C1136       C  0.81513465  0.48430552  0.70830124    -0.13300
C1137       C  0.84461909  0.48222747  0.70505251     0.00400
C1138       C  0.86136332  0.48172548  0.74479814    -0.11800
C1139       C  0.84887432  0.48169797  0.78804742     0.02900
C1140       C  0.81929474  0.48433370  0.79131748    -0.11200
H1141       H  0.80212943  0.48454133  0.67747350     0.08500
H1142       H  0.88425393  0.48026753  0.74201035     0.06000
H1143       H  0.80947792  0.48473643  0.82461069     0.05600
C1144       C  0.96207011  0.15772068  0.74576339     0.02900
C1145       C  0.46878393  0.14650615  0.70317973    -0.13300
C1146       C  0.47339080  0.11714959  0.69863208     0.00400
C1147       C  0.47088400  0.09876781  0.73674685    -0.11800
C1148       C  0.46263801  0.10913536  0.77932024     0.02900
C1149       C  0.45822513  0.13875796  0.78365299    -0.11200
H1150       H  0.97159373  0.16089355  0.67374105     0.08500
H1151       H  0.47552464  0.07624517  0.73312421     0.06000
H1152       H  0.95282040  0.14757288  0.81638911     0.05800
C1153       C  0.95722151  0.28163223  0.75315924     0.02900
C1154       C  0.96012208  0.29811668  0.71253256    -0.13300
C1155       C  0.96213199  0.32829111  0.71423022     0.00400
C1156       C  0.96129794  0.34175910  0.75671226    -0.11800
C1157       C  0.95915919  0.32561289  0.79724050     0.02900
C1158       C  0.95705990  0.29558766  0.79550312    -0.11200
H1159       H  0.96214689  0.28749281  0.68008114     0.08500
H1160       H  0.96353757  0.36500853  0.75840614     0.06000
H1161       H  0.95596939  0.28309854  0.82702128     0.05800
O1162       O  0.98249903  0.02457510  0.55183814    -0.80400
O1163       O  0.95768879  0.46139444  0.90696727    -0.80400
O1164       O  0.48041224  0.02584648  0.96290317    -0.80400
O1165       O  0.92051358  0.43995692  0.53194169    -0.80400
O1166       O  0.99446066  0.00410433  0.90192108    -0.80500
O1167       O  0.94043641  0.48051345  0.55825233    -0.80400
O1168       O  0.93776235  0.47955013  0.96624620    -0.80400
O1169       O  0.52151357  0.04474910  0.52364375    -0.80400
C1170       C  0.00101501  0.04563612  0.55081626     1.09300
C1171       C  0.93657441  0.47299293  0.92461721     1.09200
C1172       C  0.98223826  0.02489298  0.92008535     1.09300
C1173       C  0.91964341  0.46159439  0.55805748     1.09200
O1174       O  0.98344902  0.44180445  0.59595009    -0.80400
O1175       O  0.54041344  0.46637252  0.93433726    -0.80500
O1176       O  0.54724436  0.99277704  0.52487442    -0.80400
O1177       O  0.95399601  0.41912012  0.95726489    -0.80400
O1178       O  0.99905666  0.42185651  0.93867477    -0.80400
O1179       O  0.52419650  0.48276315  0.59088643    -0.80400
O1180       O  0.97219975  0.41661453  0.53724256    -0.80400
O1181       O  0.53925672  0.01291438  0.94552256    -0.80400
Co1182     Co  0.98404056  0.48092266  0.56630550     1.51500
Co1183     Co  0.99853889  0.46356600  0.92599918     1.51700
Co1184     Co  0.51208113  0.00815904  0.99793910     1.51600
Co1185     Co  0.95712129  0.45019071  0.00475175     1.51500
O1186       O  0.99483212  0.46870173  0.99579186    -1.42300
C1187       C  0.97881476  0.41758105  0.57853416     1.09200
C1188       C  0.55205631  0.49117644  0.93014942     1.09300
C1189       C  0.54740144  0.48617936  0.57018947     1.09300
C1190       C  0.97534693  0.40813360  0.93831868     1.09200
C1191       C  0.98979706  0.34691538  0.85748290    -0.20600
C1192       C  0.96225474  0.34077193  0.84102259    -0.07100
C1193       C  0.93886752  0.35308812  0.86196866     0.13700
C1194       C  0.94372627  0.37322453  0.89671657    -0.20600
C1195       C  0.97155702  0.38179495  0.91025766    -0.07100
C1196       C  0.99488325  0.36725561  0.89183441     0.13700
C1197       C  0.02528446  0.37333158  0.90682143    -0.24000
H1198       H  0.00758592  0.33704508  0.84125163     0.15000
H1199       H  0.92566810  0.38363372  0.91113088     0.15100
C1200       C  0.90891608  0.34579778  0.84628160    -0.23900
H1201       H  0.04001144  0.35787767  0.89193601     0.05300
H1202       H  0.02709358  0.37141689  0.94460801     0.08500
H1203       H  0.03255733  0.39513144  0.89523184     0.08500
H1204       H  0.90453613  0.32231457  0.85050571     0.08500
H1205       H  0.90622178  0.35190173  0.80970836     0.08500
H1206       H  0.89299454  0.35729585  0.86628275     0.05300
C1207       C  0.99376216  0.36303203  0.67337822    -0.20600
C1208       C  0.96836294  0.34643562  0.67316602    -0.07100
C1209       C  0.94831018  0.35061710  0.63756299     0.13700
C1210       C  0.95364855  0.37239023  0.60443605    -0.20600
C1211       C  0.97785281  0.39093752  0.60744942    -0.07100
C1212       C  0.99852072  0.38537509  0.64151008     0.13700
C1213       C  0.52583870  0.40229887  0.64394178    -0.24000
H1214       H  0.50966467  0.35846490  0.69907306     0.15000
H1215       H  0.93792932  0.37617874  0.57786264     0.15100
C1216       C  0.92059457  0.33348914  0.63613178    -0.23900
H1217       H  0.54057328  0.39384255  0.67048008     0.05300
H1218       H  0.52062553  0.42447579  0.65350209     0.08500
H1219       H  0.53683000  0.40222300  0.61054719     0.08500
H1220       H  0.90874397  0.33659518  0.66820984     0.08500
H1221       H  0.92476894  0.31032025  0.63229874     0.08500
H1222       H  0.90688668  0.34024294  0.60699478     0.05300
C1223       C  0.47690177  0.09714044  0.85948533    -0.20600
C1224       C  0.46163478  0.08922854  0.81971880    -0.07100
C1225       C  0.94929512  0.06133702  0.81746044     0.13700
C1226       C  0.95564182  0.04098789  0.85154034    -0.20600
C1227       C  0.97224436  0.04840650  0.88997838    -0.07100
C1228       C  0.48193907  0.07711177  0.89487760     0.13700
C1229       C  0.49934674  0.08639460  0.93592856    -0.24000
H1230       H  0.48637806  0.11863059  0.86177551     0.15000
H1231       H  0.94760603  0.01900552  0.84797100     0.15100
C1232       C  0.92894055  0.05207003  0.77981750    -0.23900
H1233       H  0.50602686  0.10948990  0.93366525     0.05300
H1234       H  0.51881453  0.07361385  0.93869588     0.08500
H1235       H  0.48654288  0.08318513  0.96732221     0.08500
H1236       H  0.93848370  0.03497982  0.75939213     0.08500
H1237       H  0.92309364  0.07007630  0.75674215     0.08500
H1238       H  0.90888387  0.04331862  0.79508690     0.05300
C1239       C  0.50939318  0.09996147  0.64515117    -0.20600
C1240       C  0.48078273  0.10496204  0.65419466    -0.07100
C1241       C  0.95979271  0.09454067  0.62414068     0.13700
C1242       C  0.96742144  0.07772915  0.58710927    -0.20600
C1243       C  0.99586806  0.07057042  0.58014536    -0.07100
C1244       C  0.51697944  0.08262949  0.60853168     0.13700
C1245       C  0.54767312  0.07545690  0.60292168    -0.24000
H1246       H  0.52565808  0.10807006  0.66863493     0.15000
H1247       H  0.95083620  0.06844147  0.56530007     0.15100
C1248       C  0.92883833  0.09968707  0.63264606    -0.23900
H1249       H  0.56166195  0.08640943  0.62859830     0.05300
H1250       H  0.55493475  0.08240687  0.56841850     0.08500
H1251       H  0.55004376  0.05191115  0.60728847     0.08500
H1252       H  0.92529043  0.12316211  0.63280279     0.08500
H1253       H  0.92255203  0.09015511  0.66619109     0.08500
H1254       H  0.91485642  0.08988538  0.60583688     0.05300
C1255       C  0.97944145  0.23567439  0.77469535    -0.20600
C1256       C  0.95725288  0.24975641  0.75209308    -0.07100
C1257       C  0.93565191  0.23327625  0.72960992     0.13700
C1258       C  0.93740766  0.20316851  0.72880569    -0.20600
C1259       C  0.95989937  0.18919922  0.75070406    -0.07100
C1260       C  0.48106246  0.20530007  0.77419298     0.13700
C1261       C  0.50586384  0.19110057  0.79729891    -0.24000
H1262       H  0.49625081  0.24801757  0.79165131     0.15000
H1263       H  0.92121724  0.19041512  0.71091903     0.15100
C1264       C  0.91035195  0.24725031  0.70767591    -0.23900
H1265       H  0.52108389  0.20713910  0.81250502     0.05300
H1266       H  0.51750096  0.17846931  0.77204204     0.08500
H1267       H  0.49815799  0.17657507  0.82522158     0.08500
H1268       H  0.91724902  0.26148915  0.67893563     0.08500
H1269       H  0.89932984  0.26009052  0.73339603     0.08500
H1270       H  0.89479695  0.23103292  0.69383224     0.05300
C1271       C  0.87066645  0.49922152  0.86147066    -0.20600
C1272       C  0.86723258  0.47734131  0.82891706    -0.07100
C1273       C  0.88343228  0.45238145  0.83344638     0.13700
C1274       C  0.90471469  0.45136242  0.86697732    -0.20600
C1275       C  0.91014584  0.47431418  0.89681916    -0.07100
C1276       C  0.89182800  0.49779614  0.89599755     0.13700
C1277       C  0.89514014  0.52162586  0.93010239    -0.24000
H1278       H  0.85764385  0.51797290  0.85862980     0.15000
H1279       H  0.91790062  0.43268050  0.86898982     0.15100
C1280       C  0.87847136  0.42663095  0.80310478    -0.23900
H1281       H  0.87934271  0.53852832  0.92393442     0.05300
H1282       H  0.91833918  0.03221161  0.92461349     0.08500
H1283       H  0.89190100  0.51276676  0.96516353     0.08500
H1284       H  0.88414021  0.43192554  0.76726157     0.08500
H1285       H  0.85578297  0.41933717  0.80458491     0.08500
H1286       H  0.89162058  0.40830975  0.81409985     0.05300
C1287       C  0.89222451  0.49527804  0.60364539    -0.20600
C1288       C  0.89486502  0.46705825  0.58753845    -0.07100
C1289       C  0.87697087  0.44477473  0.60591943     0.13700
C1290       C  0.85879073  0.45094380  0.64210490    -0.20600
C1291       C  0.85843523  0.47856768  0.66063441    -0.07100
C1292       C  0.87464312  0.50116914  0.64040875     0.13700
C1293       C  0.87421540  0.53127867  0.65877703    -0.24000
H1294       H  0.90530630  0.51268319  0.58926027     0.15000
H1295       H  0.84619295  0.43373541  0.65809553     0.15100
C1296       C  0.87815819  0.41420038  0.59001334    -0.23900
H1297       H  0.88793276  0.54650300  0.63859110     0.05300
H1298       H  0.88207571  0.53152527  0.69469875     0.08500
H1299       H  0.85213647  0.53903640  0.65746933     0.08500
H1300       H  0.89974888  0.40605429  0.59638754     0.08500
H1301       H  0.87284050  0.41316699  0.55299666     0.08500
H1302       H  0.86280109  0.39972145  0.60847031     0.05300
C1303       C  0.59356902  0.47134995  0.89130423    -0.20600
C1304       C  0.57689674  0.49529004  0.89940983    -0.07100
C1305       C  0.58192436  0.52087403  0.87323488     0.13700
C1306       C  0.60265457  0.52130153  0.83894006    -0.20600
C1307       C  0.61816046  0.49686986  0.82970420    -0.07100
C1308       C  0.61379173  0.47170246  0.85642271     0.13700
C1309       C  0.62913065  0.44460976  0.84619831    -0.24000
H1310       H  0.58978068  0.45168786  0.91092211     0.15000
H1311       H  0.60580355  0.54033160  0.81754310     0.15100
C1312       C  0.56443660  0.54718175  0.87880955    -0.23900
H1313       H  0.62265082  0.42661652  0.86957211     0.05300
H1314       H  0.65243052  0.44849515  0.85018215     0.08500
H1315       H  0.62143807  0.93843889  0.80508003     0.08500
H1316       H  0.56731278  0.55559741  0.91392150     0.08500
H1317       H  0.54243059  0.04412428  0.87138157     0.08500
H1318       H  0.57087861  0.56471637  0.85454430     0.05300
C1319       C  0.57679386  0.46176192  0.62789112    -0.20600
C1320       C  0.57484329  0.48411410  0.59573843    -0.07100
C1321       C  0.59810361  0.00781163  0.59094830     0.13700
C1322       C  0.61924954  0.00755133  0.62546117    -0.20600
C1323       C  0.61872757  0.48422254  0.66266331    -0.07100
C1324       C  0.59843511  0.46123363  0.66094258     0.13700
C1325       C  0.59841481  0.43628692  0.69444387    -0.24000
H1326       H  0.56074128  0.44501128  0.62802548     0.15000
H1327       H  0.63491288  0.02514772  0.62730733     0.15100
C1328       C  0.59952410  0.03209596  0.55636414    -0.23900
H1329       H  0.59900673  0.41581910  0.67543860     0.05300
H1330       H  0.57871972  0.43617284  0.71503496     0.08500
H1331       H  0.61707528  0.43699731  0.71797095     0.08500
H1332       H  0.58138158  0.03198191  0.53204134     0.08500
H1333       H  0.61934965  0.03070350  0.53638230     0.08500
H1334       H  0.60012574  0.05299063  0.57424218     0.05300
C1335       C  0.72382102  0.46667246  0.76671430    -0.20600
C1336       C  0.71141508  0.49177604  0.74989306    -0.07100
C1337       C  0.72868776  0.01334949  0.72895486     0.13700
C1338       C  0.75864934  0.51294988  0.73741794    -0.20600
C1339       C  0.77109359  0.48773227  0.75372753    -0.07100
C1340       C  0.75352218  0.46428284  0.76851336     0.13700
C1341       C  0.76602237  0.43642582  0.78453936    -0.24000
H1342       H  0.71016073  0.44873533  0.77775270     0.15000
H1343       H  0.77212196  0.02734547  0.71675921     0.15100
C1344       C  0.71661173  0.03971025  0.70651107    -0.23900
H1345       H  0.74920988  0.41999238  0.79321510     0.05300
H1346       H  0.77936319  0.44007725  0.81556303     0.08500
H1347       H  0.77929804  0.42768549  0.75716740     0.08500
H1348       H  0.70310426  0.05084841  0.73112409     0.08500
H1349       H  0.70362531  0.03354595  0.67609215     0.08500
H1350       H  0.73365572  0.05514102  0.69496760     0.05300
C1351       C  0.67925324  0.99198157  0.24598848     0.02900
C1352       C  0.66439451  0.98917258  0.20421361    -0.13300
C1353       C  0.63467227  0.48868459  0.20765433     0.00400
C1354       C  0.62025389  0.49330661  0.24838743    -0.11800
C1355       C  0.63502879  0.49583645  0.28989082     0.02900
C1356       C  0.66415552  0.99527445  0.28667161    -0.11200
H1357       H  0.67583435  0.98546501  0.17300772     0.08500
H1358       H  0.59719003  0.49362472  0.24808382     0.06000
H1359       H  0.67546130  0.99655092  0.31910744     0.05800
C1360       C  0.80144460  0.98359533  0.25106302     0.02900
C1361       C  0.81481399  0.98195768  0.20851333    -0.13300
C1362       C  0.84437233  0.98025236  0.20626404     0.00400
C1363       C  0.86061713  0.98012531  0.24655085    -0.11800
C1364       C  0.84759104  0.98080795  0.28932368     0.02900
C1365       C  0.81795624  0.98320866  0.29157795    -0.11200
H1366       H  0.80221512  0.98184308  0.17724732     0.08500
H1367       H  0.88353553  0.97850563  0.24463294     0.06000
H1368       H  0.80781622  0.98429579  0.32453621     0.05600
C1369       C  0.96460348  0.65795839  0.24749672     0.02900
C1370       C  0.47157579  0.64688310  0.20517488    -0.13300
C1371       C  0.47657530  0.61758068  0.20086260     0.00400
C1372       C  0.47407264  0.59925743  0.23909278    -0.11800
C1373       C  0.46521168  0.60955383  0.28141394     0.02900
C1374       C  0.46043480  0.63915560  0.28545240    -0.11200
H1375       H  0.97448805  0.66120565  0.17560094     0.08500
H1376       H  0.47894231  0.57677992  0.23565919     0.06000
H1377       H  0.95448139  0.64754923  0.31774754     0.05800
C1378       C  0.95785637  0.78194910  0.25358793     0.02900
C1379       C  0.96130941  0.79864956  0.21322688    -0.13300
C1380       C  0.96308423  0.82885012  0.21524635     0.00400
C1381       C  0.96171874  0.84211178  0.25784400    -0.11800
C1382       C  0.95909154  0.82579050  0.29813378     0.02900
C1383       C  0.95697565  0.79578179  0.29601327    -0.11200
H1384       H  0.96401407  0.78821112  0.18078977     0.08500
H1385       H  0.96390747  0.86535084  0.25985805     0.06000
H1386       H  0.95548250  0.78319301  0.32739664     0.05800
O1387       O  0.98364364  0.52487544  0.05414461    -0.80400
O1388       O  0.95640039  0.96104214  0.40717073    -0.80400
O1389       O  0.48044567  0.52552978  0.46562414    -0.80400
O1390       O  0.92141655  0.94002351  0.03299635    -0.80400
O1391       O  0.99492637  0.50413632  0.40374473    -0.80500
O1392       O  0.94071906  0.98096024  0.05877687    -0.80400
O1393       O  0.93731676  0.98015377  0.46646760    -0.80400
O1394       O  0.52351162  0.54379741  0.02643256    -0.80400
C1395       C  0.00277230  0.54539797  0.05298336     1.09300
C1396       C  0.93563127  0.97318840  0.42501791     1.09200
C1397       C  0.98253622  0.52475042  0.42216193     1.09300
C1398       C  0.92024390  0.96169125  0.05897888     1.09200
O1399       O  0.98448574  0.94306874  0.09641757    -0.80400
O1400       O  0.53948128  0.96680937  0.43210171    -0.80500
O1401       O  0.54697489  0.49111172  0.02985227    -0.80400
O1402       O  0.95346397  0.91931433  0.45811203    -0.80400
O1403       O  0.99842886  0.92193587  0.43907424    -0.80400
O1404       O  0.52453826  0.98505974  0.08873273    -0.80400
O1405       O  0.97338149  0.91731537  0.03829968    -0.80400
O1406       O  0.53931288  0.51236506  0.44863125    -0.80400
Co1407     Co  0.98443235  0.98197302  0.06555134     1.51500
Co1408     Co  0.99754852  0.96342701  0.42518815     1.51700
Co1409     Co  0.51189848  0.50727211  0.50054353     1.51600
Co1410     Co  0.95654433  0.95083788  0.50506359     1.51500
O1411       O  0.99441427  0.96900109  0.49496774    -1.42300
C1412       C  0.97997384  0.91862555  0.07958814     1.09200
C1413       C  0.55092477  0.99170122  0.42709338     1.09300
C1414       C  0.54764782  0.98801498  0.06769285     1.09300
C1415       C  0.97478184  0.90815031  0.43929941     1.09200
C1416       C  0.98944675  0.84676210  0.35900660    -0.20600
C1417       C  0.96197143  0.84071808  0.34217872    -0.07100
C1418       C  0.93850865  0.85292451  0.36309126     0.13700
C1419       C  0.94324574  0.87296179  0.39804685    -0.20600
C1420       C  0.97103177  0.88160053  0.41170165    -0.07100
C1421       C  0.99441704  0.86704049  0.39348214     0.13700
C1422       C  0.02477897  0.87307484  0.40873937    -0.24000
H1423       H  0.00729537  0.83692358  0.34289064     0.15000
H1424       H  0.92514522  0.88331184  0.41242636     0.15100
C1425       C  0.90861912  0.84567478  0.34709061    -0.23900
H1426       H  0.03951562  0.85752114  0.39414006     0.05300
H1427       H  0.02643724  0.87127791  0.44655340     0.08500
H1428       H  0.03217632  0.89480983  0.39703525     0.08500
H1429       H  0.90427392  0.82216204  0.35089865     0.08500
H1430       H  0.90602115  0.85201711  0.31059738     0.08500
H1431       H  0.89261975  0.85698988  0.36720004     0.05300
C1432       C  0.99457892  0.86429427  0.17537832    -0.20600
C1433       C  0.96944666  0.84728707  0.17446617    -0.07100
C1434       C  0.94967993  0.85129158  0.13838948     0.13700
C1435       C  0.95502833  0.87321242  0.10546964    -0.20600
C1436       C  0.97896636  0.89209692  0.10901962    -0.07100
C1437       C  0.99936945  0.88671742  0.14360839     0.13700
C1438       C  0.52618897  0.90472709  0.14746304    -0.24000
H1439       H  0.50982929  0.86114383  0.20289263     0.15000
H1440       H  0.93954258  0.87674237  0.07845192     0.15100
C1441       C  0.92222907  0.83375669  0.13616672    -0.23900
H1442       H  0.54055359  0.89673299  0.17489422     0.05300
H1443       H  0.52089560  0.92709787  0.15576448     0.08500
H1444       H  0.53759998  0.90387061  0.11452118     0.08500
H1445       H  0.91003349  0.83654536  0.16799386     0.08500
H1446       H  0.92679647  0.81068673  0.13221631     0.08500
H1447       H  0.90867662  0.84041389  0.10678424     0.05300
C1448       C  0.47770700  0.59744561  0.36252595    -0.20600
C1449       C  0.46345357  0.58954090  0.32179436    -0.07100
C1450       C  0.95153189  0.56133139  0.31822103     0.13700
C1451       C  0.95692694  0.54101770  0.35282099    -0.20600
C1452       C  0.97262647  0.54839659  0.39221058    -0.07100
C1453       C  0.48195149  0.57737984  0.39824832     0.13700
C1454       C  0.49840726  0.58662406  0.44028204    -0.24000
H1455       H  0.48707123  0.61895096  0.36538626     0.15000
H1456       H  0.94907982  0.51901424  0.34869539     0.15100
C1457       C  0.93239891  0.55189275  0.27909450    -0.23900
H1458       H  0.50492269  0.60977722  0.43857436     0.05300
H1459       H  0.51793432  0.57399471  0.44394958     0.08500
H1460       H  0.48497799  0.58315176  0.47094738     0.08500
H1461       H  0.94275792  0.53494625  0.25944022     0.08500
H1462       H  0.92698631  0.56984281  0.25562138     0.08500
H1463       H  0.91200391  0.54288296  0.29280682     0.05300
C1464       C  0.51249164  0.59924541  0.14813106    -0.20600
C1465       C  0.48402475  0.60536354  0.15639864    -0.07100
C1466       C  0.96307238  0.59611031  0.12527472     0.13700
C1467       C  0.97031978  0.57909658  0.08825175    -0.20600
C1468       C  0.99843026  0.57063051  0.08205106    -0.07100
C1469       C  0.51982176  0.58183443  0.11144266     0.13700
C1470       C  0.55025097  0.57348691  0.10657938    -0.24000
H1471       H  0.52876398  0.60653910  0.17224113     0.15000
H1472       H  0.95360234  0.57060742  0.06591116     0.15100
C1473       C  0.93230840  0.60251467  0.13305904    -0.23900
H1474       H  0.56435404  0.58378969  0.13276092     0.05300
H1475       H  0.55812114  0.58030601  0.07236074     0.08500
H1476       H  0.55169287  0.54982349  0.11071660     0.08500
H1477       H  0.92970583  0.62614378  0.13336956     0.08500
H1478       H  0.92532493  0.59309554  0.16632592     0.08500
H1479       H  0.91820998  0.59338350  0.10581689     0.05300
C1480       C  0.97964876  0.73619885  0.27771953    -0.20600
C1481       C  0.95833875  0.75002543  0.25250153    -0.07100
C1482       C  0.93796962  0.73321402  0.22779481     0.13700
C1483       C  0.94012063  0.70312190  0.22759302    -0.20600
C1484       C  0.96175442  0.68942498  0.25217503    -0.07100
C1485       C  0.48128550  0.70615132  0.27798880     0.13700
C1486       C  0.50518246  0.69245784  0.30428472    -0.24000
H1487       H  0.49492554  0.74906546  0.29693084     0.15000
H1488       H  0.92491222  0.69015013  0.20801886     0.15100
C1489       C  0.91347469  0.74674612  0.20283615    -0.23900
H1490       H  0.51947296  0.70880449  0.32084423     0.05300
H1491       H  0.51813907  0.67981744  0.28080818     0.08500
H1492       H  0.49644759  0.67807199  0.33159697     0.08500
H1493       H  0.92138621  0.76075717  0.17450049     0.08500
H1494       H  0.90125669  0.75969355  0.22692082     0.08500
H1495       H  0.89867353  0.73025588  0.18779461     0.05300
C1496       C  0.87053867  0.00022258  0.36060829    -0.20600
C1497       C  0.86551793  0.97709066  0.33078934    -0.07100
C1498       C  0.88031196  0.95145184  0.33779793     0.13700
C1499       C  0.90194887  0.95070549  0.37081023    -0.20600
C1500       C  0.90890554  0.97461616  0.39796024    -0.07100
C1501       C  0.89186041  0.99905845  0.39491980     0.13700
C1502       C  0.89658517  0.02404002  0.42654658    -0.24000
H1503       H  0.85862322  0.01960600  0.35577723     0.15000
H1504       H  0.91421357  0.93145810  0.37448440     0.15100
C1505       C  0.87355808  0.92482354  0.31025734    -0.23900
H1506       H  0.88179205  0.04161140  0.41862938     0.05300
H1507       H  0.91638957  0.53195481  0.42760482     0.08500
H1508       H  0.89296930  0.01675898  0.46236303     0.08500
H1509       H  0.87847637  0.92863833  0.27368478     0.08500
H1510       H  0.85066930  0.91863650  0.31369115     0.08500
H1511       H  0.88618323  0.90634625  0.32219253     0.05300
C1512       C  0.89266377  0.99462643  0.10593095    -0.20600
C1513       C  0.89552963  0.96662820  0.08898147    -0.07100
C1514       C  0.87782859  0.94399955  0.10685307     0.13700
C1515       C  0.85947000  0.94963245  0.14305149    -0.20600
C1516       C  0.85879039  0.97703394  0.16224114    -0.07100
C1517       C  0.87491372  0.99996624  0.14276064     0.13700
C1518       C  0.87413273  0.02986092  0.16190752    -0.24000
H1519       H  0.90562874  0.01229306  0.09208123     0.15000
H1520       H  0.84693043  0.93217482  0.15847887     0.15100
C1521       C  0.87939789  0.91357842  0.09041792    -0.23900
H1522       H  0.88775808  0.04540537  0.14219780     0.05300
H1523       H  0.88189564  0.02982171  0.19788503     0.08500
H1524       H  0.85197705  0.03741469  0.16065623     0.08500
H1525       H  0.90107648  0.90567250  0.09677657     0.08500
H1526       H  0.87415279  0.91272821  0.05336566     0.08500
H1527       H  0.86418968  0.89878154  0.10857259     0.05300
C1528       C  0.59215464  0.97141425  0.38823949    -0.20600
C1529       C  0.57594663  0.99562898  0.39671759    -0.07100
C1530       C  0.58177241  0.02144027  0.37148834     0.13700
C1531       C  0.60266809  0.02175965  0.33747990    -0.20600
C1532       C  0.61758539  0.99704043  0.32770078    -0.07100
C1533       C  0.61253981  0.97168408  0.35365883     0.13700
C1534       C  0.62730884  0.94434078  0.34289424    -0.24000
H1535       H  0.58786772  0.95161811  0.40726685     0.15000
H1536       H  0.60639055  0.04096034  0.31668500     0.15100
C1537       C  0.56504460  0.04818868  0.37780372    -0.23900
H1538       H  0.62033741  0.92625343  0.36573457     0.05300
H1539       H  0.65065560  0.94765888  0.34722009     0.08500
H1540       H  0.62506384  0.43760953  0.31484861     0.08500
H1541       H  0.56795347  0.05599738  0.41327665     0.08500
H1542       H  0.54092526  0.54141395  0.37101630     0.08500
H1543       H  0.57214947  0.06589277  0.35431098     0.05300
C1544       C  0.57643720  0.96309681  0.12486270    -0.20600
C1545       C  0.57492866  0.98561675  0.09307270    -0.07100
C1546       C  0.59735871  0.50393922  0.09555949     0.13700
C1547       C  0.61878355  0.50347870  0.12964407    -0.20600
C1548       C  0.61804427  0.98509643  0.16074671    -0.07100
C1549       C  0.59757441  0.96231779  0.15854842     0.13700
C1550       C  0.59672295  0.93747154  0.19225654    -0.24000
H1551       H  0.56019176  0.94650204  0.12432226     0.15000
H1552       H  0.63533651  0.52028275  0.12993335     0.15100
C1553       C  0.59990610  0.52741418  0.05964937    -0.23900
H1554       H  0.59717171  0.91691140  0.17347538     0.05300
H1555       H  0.57679042  0.93780624  0.21221824     0.08500
H1556       H  0.61508271  0.93790836  0.21637008     0.08500
H1557       H  0.58161545  0.52827847  0.03580875     0.08500
H1558       H  0.61931491  0.52429181  0.03928113     0.08500
H1559       H  0.60207720  0.54863188  0.07644772     0.05300
C1560       C  0.72269304  0.96633226  0.26872965    -0.20600
C1561       C  0.71055169  0.99030223  0.24753614    -0.07100
C1562       C  0.72791380  0.51464202  0.23579796     0.13700
C1563       C  0.75792966  0.00977979  0.23123966    -0.20600
C1564       C  0.77014821  0.98578858  0.25229072    -0.07100
C1565       C  0.75234067  0.96362586  0.27089087     0.13700
C1566       C  0.76442740  0.93662117  0.29119182    -0.24000
H1567       H  0.70885016  0.94945882  0.28290787     0.15000
H1568       H  0.77079638  0.53106823  0.22511124     0.15100
C1569       C  0.71456780  0.54200340  0.21950394    -0.23900
H1570       H  0.74737660  0.92093813  0.30186470     0.05300
H1571       H  0.77759823  0.94181852  0.32182789     0.08500
H1572       H  0.77771954  0.92613744  0.26552261     0.08500
H1573       H  0.70132915  0.55060496  0.24703524     0.08500
H1574       H  0.70096681  0.53767422  0.18895168     0.08500
H1575       H  0.73088173  0.55877026  0.21003090     0.05300
C1576       C  0.67950223  0.99314148  0.74617534     0.02900
C1577       C  0.66485251  0.99055677  0.70416811    -0.13300
C1578       C  0.63543639  0.48979766  0.70503509     0.00400
C1579       C  0.62061243  0.49384564  0.74561570    -0.11800
C1580       C  0.63504278  0.49642251  0.78744393     0.02900
C1581       C  0.66415815  0.99600856  0.78673843    -0.11200
H1582       H  0.67646476  0.98710334  0.67304483     0.08500
H1583       H  0.59753636  0.49369631  0.74490986     0.06000
H1584       H  0.67528983  0.99709084  0.81934326     0.05800
C1585       C  0.80167672  0.98414874  0.75085693     0.02900
C1586       C  0.81478614  0.98246213  0.70810717    -0.13300
C1587       C  0.84429518  0.98046299  0.70540184     0.00400
C1588       C  0.86077238  0.98010316  0.74547084    -0.11800
C1589       C  0.84799120  0.98082696  0.78846203     0.02900
C1590       C  0.81840479  0.98353030  0.79112418    -0.11200
H1591       H  0.80201569  0.98253636  0.67702149     0.08500
H1592       H  0.88365883  0.97834552  0.74319694     0.06000
H1593       H  0.80846110  0.98468888  0.82422966     0.05600
C1594       C  0.96381463  0.65805105  0.74767048     0.02900
C1595       C  0.47084382  0.64677140  0.70569834    -0.13300
C1596       C  0.47552385  0.61739011  0.70152630     0.00400
C1597       C  0.47313870  0.59925073  0.73997718    -0.11800
C1598       C  0.46484016  0.60981736  0.78242580     0.02900
C1599       C  0.46039899  0.63948159  0.78633657    -0.11200
H1600       H  0.97328514  0.66086359  0.67558492     0.08500
H1601       H  0.47782027  0.57671624  0.73668634     0.06000
H1602       H  0.95438552  0.64808333  0.81835491     0.05800
C1603       C  0.95809038  0.78216953  0.75311137     0.02900
C1604       C  0.96173524  0.79873487  0.71268562    -0.13300
C1605       C  0.96386540  0.82891412  0.71455698     0.00400
C1606       C  0.96264958  0.84231897  0.75704354    -0.11800
C1607       C  0.95976202  0.82611317  0.79740183     0.02900
C1608       C  0.95730616  0.79611128  0.79544775    -0.11200
H1609       H  0.96429039  0.78819582  0.68029332     0.08500
H1610       H  0.96507138  0.86554907  0.75890225     0.06000
H1611       H  0.95562928  0.78360329  0.82688904     0.05800
O1612       O  0.98288654  0.52449024  0.55444263    -0.80400
O1613       O  0.95635792  0.96082093  0.90739733    -0.80400
O1614       O  0.48182777  0.52571935  0.96567047    -0.80400
O1615       O  0.92056357  0.94088254  0.53078354    -0.80400
O1616       O  0.99598356  0.50450185  0.90377392    -0.80500
O1617       O  0.94130473  0.97955430  0.56264112    -0.80400
O1618       O  0.93686298  0.97922421  0.96695561    -0.80400
O1619       O  0.52228429  0.54396587  0.52604167    -0.80400
C1620       C  0.00182378  0.54516140  0.55313104     1.09300
C1621       C  0.93541960  0.97260354  0.92533747     1.09200
C1622       C  0.98365347  0.52510573  0.92231309     1.09300
C1623       C  0.91977106  0.96169110  0.55847560     1.09200
O1624       O  0.98691852  0.94249477  0.59545203    -0.80400
O1625       O  0.53928373  0.96686798  0.93184923    -0.80500
O1626       O  0.54655084  0.49169961  0.52851541    -0.80400
O1627       O  0.95370340  0.91887928  0.95848276    -0.80400
O1628       O  0.99859678  0.92198525  0.93916995    -0.80400
O1629       O  0.52578625  0.98617586  0.58842800    -0.80400
O1630       O  0.97180659  0.91746434  0.53847623    -0.80400
O1631       O  0.54065332  0.51223105  0.94924184    -0.80400
Co1632     Co  0.98523608  0.98148754  0.56580849     1.51500
Co1633     Co  0.99747511  0.96348415  0.92528783     1.51700
Co1634     Co  0.51293366  0.50717651  0.00093230     1.51600
Co1635     Co  0.95693957  0.95029781  0.00541773     1.51500
O1636       O  0.99436925  0.96919448  0.99499008    -1.42300
C1637       C  0.98049646  0.91837536  0.57886234     1.09200
C1638       C  0.55076274  0.99172539  0.92695351     1.09300
C1639       C  0.54860582  0.98853727  0.56679448     1.09300
C1640       C  0.97505417  0.90800741  0.93936716     1.09200
C1641       C  0.99002782  0.84714578  0.85834271    -0.20600
C1642       C  0.96258261  0.84109486  0.84138503    -0.07100
C1643       C  0.93905293  0.85315450  0.86232638     0.13700
C1644       C  0.94368805  0.87300762  0.89755148    -0.20600
C1645       C  0.97143262  0.88161442  0.91144010    -0.07100
C1646       C  0.99488962  0.86723135  0.89312500     0.13700
C1647       C  0.02519774  0.87320786  0.90871366    -0.24000
H1648       H  0.00792525  0.83741125  0.84220079     0.15000
H1649       H  0.92554004  0.88324720  0.91198596     0.15100
C1650       C  0.90920102  0.84596417  0.84608172    -0.23900
H1651       H  0.04000052  0.85777373  0.89396824     0.05300
H1652       H  0.02673429  0.87116162  0.94651270     0.08500
H1653       H  0.03260911  0.89502525  0.89743776     0.08500
H1654       H  0.90485589  0.82243627  0.84959138     0.08500
H1655       H  0.90668682  0.85247648  0.80964653     0.08500
H1656       H  0.89314814  0.85717700  0.86623277     0.05300
C1657       C  0.99562089  0.86373955  0.67388244    -0.20600
C1658       C  0.97022010  0.84713683  0.67361043    -0.07100
C1659       C  0.95017475  0.85138856  0.63804938     0.13700
C1660       C  0.95551053  0.87318855  0.60501203    -0.20600
C1661       C  0.97972523  0.89174685  0.60796383    -0.07100
C1662       C  0.00043378  0.88609870  0.64199302     0.13700
C1663       C  0.52821389  0.90333367  0.64444833    -0.24000
H1664       H  0.51183344  0.85988466  0.70020442     0.15000
H1665       H  0.93974453  0.87697543  0.57851448     0.15100
C1666       C  0.92242852  0.83430868  0.63658089    -0.23900
H1667       H  0.54302470  0.89462307  0.67064904     0.05300
H1668       H  0.52349761  0.92559139  0.65427909     0.08500
H1669       H  0.53895428  0.90306606  0.61086475     0.08500
H1670       H  0.91059439  0.83738860  0.66868280     0.08500
H1671       H  0.92656513  0.81114069  0.63265163     0.08500
H1672       H  0.90871453  0.84112290  0.60748856     0.05300
C1673       C  0.47842689  0.59775954  0.86310570    -0.20600
C1674       C  0.46346274  0.58995011  0.82297402    -0.07100
C1675       C  0.95065439  0.56189882  0.82006583     0.13700
C1676       C  0.95676430  0.54150912  0.85423251    -0.20600
C1677       C  0.97348541  0.54876514  0.89260767    -0.07100
C1678       C  0.48320895  0.57760345  0.89849907     0.13700
C1679       C  0.50016683  0.58676474  0.94008573    -0.24000
H1680       H  0.48787530  0.61924526  0.86569660     0.15000
H1681       H  0.94859614  0.51958078  0.85061427     0.15100
C1682       C  0.93036121  0.55273605  0.78228008    -0.23900
H1683       H  0.50670156  0.60991052  0.93828102     0.05300
H1684       H  0.51969410  0.57409134  0.94317297     0.08500
H1685       H  0.48707926  0.58328269  0.97112642     0.08500
H1686       H  0.93985527  0.53555120  0.76199355     0.08500
H1687       H  0.92471657  0.57075990  0.75909429     0.08500
H1688       H  0.91020039  0.54413878  0.79740174     0.05300
C1689       C  0.51148572  0.59750364  0.65057619    -0.20600
C1690       C  0.48322023  0.60499743  0.65726814    -0.07100
C1691       C  0.96202781  0.59633370  0.62475363     0.13700
C1692       C  0.96946341  0.57926858  0.58783826    -0.20600
C1693       C  0.99747254  0.57024115  0.58256409    -0.07100
C1694       C  0.51884541  0.58011673  0.61391479     0.13700
C1695       C  0.54896644  0.57057219  0.61040985    -0.24000
H1696       H  0.52751196  0.60383840  0.67574262     0.15000
H1697       H  0.95294224  0.57128730  0.56468977     0.15100
C1698       C  0.93136021  0.60362376  0.63119754    -0.23900
H1699       H  0.56288106  0.57988108  0.63774019     0.05300
H1700       H  0.55775049  0.57766475  0.57691907     0.08500
H1701       H  0.54943600  0.54678640  0.61357912     0.08500
H1702       H  0.92941923  0.62734137  0.63143650     0.08500
H1703       H  0.92357309  0.59438767  0.66412815     0.08500
H1704       H  0.91748474  0.59490941  0.60333583     0.05300
C1705       C  0.97964820  0.73632085  0.77718439    -0.20600
C1706       C  0.95832391  0.75024434  0.75216638    -0.07100
C1707       C  0.93779166  0.73353859  0.72763135     0.13700
C1708       C  0.93970335  0.70341814  0.72760399    -0.20600
C1709       C  0.96132382  0.68959909  0.75205110    -0.07100
C1710       C  0.48150375  0.70629851  0.77802711     0.13700
C1711       C  0.50548164  0.69258885  0.80410006    -0.24000
H1712       H  0.49539999  0.74920472  0.79658331     0.15000
H1713       H  0.92432304  0.69051869  0.70824969     0.15100
C1714       C  0.91340534  0.74722603  0.70261103    -0.23900
H1715       H  0.51993428  0.70893477  0.82031946     0.05300
H1716       H  0.51825108  0.67981837  0.78053648     0.08500
H1717       H  0.49685431  0.67833446  0.83165910     0.08500
H1718       H  0.92142535  0.76109707  0.67418095     0.08500
H1719       H  0.90131386  0.76035141  0.72661427     0.08500
H1720       H  0.89846364  0.73082248  0.68767980     0.05300
C1721       C  0.87075063  0.99990539  0.86016724    -0.20600
C1722       C  0.86603760  0.97699399  0.82980408    -0.07100
C1723       C  0.88087972  0.95136020  0.83663221     0.13700
C1724       C  0.90220108  0.95041118  0.87015820    -0.20600
C1725       C  0.90884435  0.97411604  0.89792120    -0.07100
C1726       C  0.89180375  0.99855384  0.89488642     0.13700
C1727       C  0.89627288  0.02334458  0.92696166    -0.24000
H1728       H  0.85878141  0.01926725  0.85550375     0.15000
H1729       H  0.91449438  0.93117780  0.87375482     0.15100
C1730       C  0.87446598  0.92491117  0.80849492    -0.23900
H1731       H  0.88154732  0.04096497  0.91898590     0.05300
H1732       H  0.91672602  0.53182756  0.92792876     0.08500
H1733       H  0.89236742  0.01585353  0.96259527     0.08500
H1734       H  0.87976415  0.92897281  0.77212635     0.08500
H1735       H  0.85155659  0.91864611  0.81123654     0.08500
H1736       H  0.88701446  0.90638532  0.82045385     0.05300
C1737       C  0.89171666  0.99486841  0.60397174    -0.20600
C1738       C  0.89460994  0.96683727  0.58724542    -0.07100
C1739       C  0.87708736  0.94419349  0.60540849     0.13700
C1740       C  0.85893290  0.94982108  0.64187649    -0.20600
C1741       C  0.85836849  0.97723853  0.66107059    -0.07100
C1742       C  0.87424224  0.00020585  0.64115496     0.13700
C1743       C  0.87361224  0.03009198  0.66034411    -0.24000
H1744       H  0.90466456  0.01247876  0.58987941     0.15000
H1745       H  0.84656978  0.93233916  0.65758773     0.15100
C1746       C  0.87886762  0.91374185  0.58918437    -0.23900
H1747       H  0.88704012  0.04563860  0.64031043     0.05300
H1748       H  0.88170560  0.03005081  0.69614176     0.08500
H1749       H  0.85144673  0.03762608  0.65962685     0.08500
H1750       H  0.90066365  0.90605253  0.59528445     0.08500
H1751       H  0.87347553  0.91274668  0.55219405     0.08500
H1752       H  0.86387312  0.89887032  0.60763643     0.05300
C1753       C  0.59164836  0.97133394  0.88720275    -0.20600
C1754       C  0.57573931  0.99565660  0.89640506    -0.07100
C1755       C  0.58182187  0.02163504  0.87174341     0.13700
C1756       C  0.60271586  0.02205940  0.83770149    -0.20600
C1757       C  0.61736405  0.99727963  0.82727309    -0.07100
C1758       C  0.61200062  0.97171356  0.85254988     0.13700
C1759       C  0.62643537  0.94431241  0.84101734    -0.24000
H1760       H  0.58716653  0.95139269  0.90573320     0.15000
H1761       H  0.60666896  0.04143289  0.81741858     0.15100
C1762       C  0.56537837  0.04849587  0.87870919    -0.23900
H1763       H  0.61928591  0.92607303  0.86341745     0.05300
H1764       H  0.64981597  0.94732435  0.84531868     0.08500
H1765       H  0.62424300  0.43784853  0.81062556     0.08500
H1766       H  0.56835431  0.05594358  0.91437188     0.08500
H1767       H  0.54161566  0.54172821  0.87215073     0.08500
H1768       H  0.57266626  0.06634516  0.85563225     0.05300
C1769       C  0.57797704  0.96344289  0.62294960    -0.20600
C1770       C  0.57601063  0.98627731  0.59175809    -0.07100
C1771       C  0.59755012  0.50506927  0.59337976     0.13700
C1772       C  0.61914629  0.50487277  0.62725728    -0.20600
C1773       C  0.61876203  0.98631999  0.66002575    -0.07100
C1774       C  0.59898229  0.96296049  0.65692128     0.13700
C1775       C  0.59873855  0.93776348  0.68995282    -0.24000
H1776       H  0.56214397  0.94635930  0.62179984     0.15000
H1777       H  0.63517513  0.52215729  0.62792954     0.15100
C1778       C  0.59939325  0.52883455  0.55788970    -0.23900
H1779       H  0.59996571  0.91746964  0.67062746     0.05300
H1780       H  0.57866755  0.93721080  0.70963443     0.08500
H1781       H  0.61695151  0.93854296  0.71434709     0.08500
H1782       H  0.58097201  0.52935346  0.53425122     0.08500
H1783       H  0.61880338  0.52633715  0.53725060     0.08500
H1784       H  0.60116710  0.54994807  0.57504821     0.05300
C1785       C  0.72288432  0.96748279  0.76933155    -0.20600
C1786       C  0.71082204  0.99147079  0.74804458    -0.07100
C1787       C  0.72896733  0.51527396  0.73545590     0.13700
C1788       C  0.75828698  0.01067954  0.73154231    -0.20600
C1789       C  0.77041339  0.98661889  0.75253161    -0.07100
C1790       C  0.75251822  0.96460421  0.77135361     0.13700
C1791       C  0.76448262  0.93754253  0.79166582    -0.24000
H1792       H  0.70898327  0.95068352  0.78358072     0.15000
H1793       H  0.77226577  0.53078362  0.72583765     0.15100
C1794       C  0.71636280  0.54284049  0.71844474    -0.23900
H1795       H  0.74736498  0.92197972  0.80249233     0.05300
H1796       H  0.77775332  0.94269550  0.82221088     0.08500
H1797       H  0.77764242  0.92693445  0.76595118     0.08500
H1798       H  0.70298279  0.55183002  0.74545903     0.08500
H1799       H  0.70305000  0.53865243  0.68753189     0.08500
H1800       H  0.73310724  0.55924897  0.70932138     0.05300
loop_ 
_geom_bond_atom_site_label_1 
_geom_bond_atom_site_label_2 
_geom_bond_distance 
_geom_bond_site_symmetry_2 
_ccdc_geom_bond_type 
C1            C2   1.407       .  A
C1            C6   1.405       .  A
C1          C211   1.476       .  S
C2          C453   1.402       .  A
C2            H7   1.084       .  S
C3            C4   1.401       .  A
C3          C452   1.400       .  A
C3          C648   1.476       .  S
C4            C5   1.397       .  A
C4            H8   1.085       .  S
C5          C456   1.401       .  A
C5          C632   1.476       .  S
C6          C455   1.401       .  A
C6            H9   1.084       .  S
C10          C11   1.405       .  A
C10          C15   1.409       .  A
C10         C214   1.478       .  S
C11          C12   1.398       .  A
C11          H16   1.084       .  S
C12          C13   1.398       .  A
C12         C166   1.476       .  S
C13          C14   1.402       .  A
C13          H17   1.085       .  S
C14          C15   1.405       .  A
C14         C147   1.485       .  S
C15          H18   1.083       .  S
C19         C920   1.404       .  A
C19         C924   1.408       .  A
C19         C134   1.481       .  S
C20          C21   1.398       .  A
C20         C919   1.404       .  A
C20         H925   1.084       .  S
C21          C22   1.400       .  A
C21         C115   1.476       .  S
C22          C23   1.405       .  A
C22          H26   1.084       .  S
C23          C24   1.408       .  A
C23          C99   1.492       .  S
C24         C919   1.408       .  A
C24         H927   1.083       .  S
H25         C920   1.084       .  S
H27         C924   1.083       .  S
C28          C29   1.412       .  A
C28          C33   1.408       .  A
C28         C131   1.485       .  S
C29          C30   1.405       .  A
C29          H34   1.083       .  S
C30          C31   1.401       .  A
C30          C83   1.486       .  S
C31          C32   1.397       .  A
C31          H35   1.085       .  S
C32          C33   1.399       .  A
C32          C67   1.476       .  S
C33          H36   1.084       .  S
O37          C45   1.290       .  A
O37        Co507   2.050   1_545  S
O38          C46   1.264       .  A
O38         Co58   1.993       .  S
O39         C947   1.263       .  A
O39         Co59   1.992   1_655  S
O40          C48   1.275       .  A
O40        Co285   1.910       .  S
O41          C47   1.267       .  A
O41        Co508   2.009   1_545  S
O42          C48   1.294       .  A
O42         Co57   2.060       .  S
O43          C46   1.262       .  A
O43         Co60   1.999       .  S
O44         C945   1.274       .  A
O44        Co284   1.920   1_554  S
C45         C118   1.480       .  S
C45         O944   1.273       .  A
C46         C150   1.483       .  S
C47         C102   1.480       .  S
C47         O939   1.263       .  A
C48         C163   1.489       .  S
O49          C62   1.256       .  A
O49         Co57   2.009       .  S
O50          C63   1.267       .  A
O50        Co958   1.977   1_455  S
O51         C514   1.242       .  A
O51        Co284   1.965   1_564  S
O52          C65   1.276       .  A
O52         Co60   2.017       .  S
O53          C65   1.268       .  A
O53         Co58   1.976       .  S
O54          C64   1.259       .  A
O54        Co957   2.005   1_455  S
O55          C62   1.244       .  A
O55        Co285   1.970       .  S
O56         C513   1.271   1_545  A
O56         Co59   2.012       .  S
Co57        O487   2.055       .  S
Co57        O954   2.006       .  S
Co57        O286   2.218   1_554  S
Co58        O491   2.009       .  S
Co58        O950   1.976       .  S
Co58         O61   2.068       .  S
Co59        O269   1.922       .  S
Co59        O276   1.968   1_545  S
Co59       O1411   1.973   1_445  S
Co60        O265   1.907       .  S
Co60        O280   1.972       .  S
Co60         O61   1.967       .  S
O61        Co282   2.216       .  S
O61       Co1409   1.971       .  S
C62          C86   1.491       .  S
C63         C179   1.484       .  S
C63         O506   1.271       .  A
C64         C195   1.486       .  S
C64         O501   1.244       .  A
C65          C70   1.491       .  S
C66          C67   1.399       .  A
C66          C71   1.404       .  A
C66          H73   1.085       .  S
C67          C68   1.407       .  A
C68          C69   1.404       .  A
C68          C75   1.506       .  S
C69          C70   1.411       .  A
C69          H74   1.083       .  S
C70          C71   1.422       .  A
C71          C72   1.509       .  S
C72          H76   1.111       .  S
C72          H77   1.110       .  S
C72          H78   1.109       .  S
C75          H79   1.110       .  S
C75          H80   1.110       .  S
C75          H81   1.111       .  S
C82          C83   1.401       .  A
C82          C87   1.400       .  A
C82         H989   1.085       .  S
C83          C84   1.413       .  A
C84          C85   1.412       .  A
C84          C91   1.506       .  S
C85          C86   1.409       .  A
C85          H90   1.084       .  S
C86          C87   1.410       .  A
C87         C988   1.494       .  S
C88         C987   1.494   1_455  S
C88          H92   1.111       .  S
C88          H93   1.109       .  S
C88          H94   1.110       .  S
H89         C982   1.085   1_455  S
C91          H95   1.110       .  S
C91          H96   1.109       .  S
C91          H97   1.111       .  S
C98          C99   1.407       .  A
C98         C103   1.407       .  A
C98         H105   1.084       .  S
C99        C1000   1.419       .  A
C100        C101   1.402       .  A
C100        C999   1.419       .  A
C100        C107   1.509       .  S
C101        C102   1.402       .  A
C101        H106   1.084       .  S
C102       C1003   1.413       .  A
C103       C1002   1.413       .  A
C103        C104   1.506       .  S
C104        H108   1.111   1_655  S
C104        H109   1.109   1_655  S
C104        H110   1.110       .  S
C107        H111   1.110       .  S
C107        H112   1.108       .  S
C107        H113   1.111       .  S
C114        C115   1.402   1_455  A
C114        C119   1.406       .  A
C114        H121   1.084       .  S
C115       C1016   1.409       .  A
C116        C117   1.401       .  A
C116       C1015   1.409       .  A
C116        C123   1.507       .  S
C117        C118   1.406       .  A
C117        H122   1.084       .  S
C118       C1019   1.414       .  A
C119       C1018   1.414   1_455  A
C119        C120   1.503       .  S
C120        H124   1.111       .  S
C120        H125   1.110       .  S
C120        H126   1.110       .  S
C123        H127   1.110       .  S
C123        H128   1.111       .  S
C123        H129   1.111       .  S
C130        C131   1.405       .  A
C130       C1035   1.404       .  A
C130       H1037   1.084       .  S
C131        C132   1.415       .  A
C132        C133   1.406       .  A
C132        C139   1.507       .  S
C133        C134   1.403       .  A
C133        H138   1.084       .  S
C134       C1035   1.413       .  A
C135       C1030   1.404       .  A
C135       C1034   1.413       .  A
C135        C136   1.508   1_655  S
C136        H140   1.111       .  S
C136        H141   1.110       .  S
C136        H142   1.109   1_455  S
H137       C1030   1.084       .  S
C139        H143   1.108       .  S
C139        H144   1.110       .  S
C139        H145   1.111       .  S
C146        C147   1.408       .  A
C146        C151   1.414       .  A
C146        H153   1.084       .  S
C147        C148   1.413       .  A
C148        C149   1.396       .  A
C148        C155   1.511       .  S
C149        C150   1.404       .  A
C149        H154   1.084       .  S
C150        C151   1.413       .  A
C151        C152   1.504       .  S
C152        H156   1.111       .  S
C152        H158   1.110       .  S
C152        H607   1.109       .  S
C155        H159   1.108       .  S
C155        H160   1.110       .  S
C155        H161   1.111       .  S
H157        C602   1.106       .  S
C162        C163   1.410       .  A
C162        C167   1.401       .  A
C162        H169   1.084       .  S
C163        C164   1.418       .  A
C164        C165   1.407       .  A
C164        C171   1.505       .  S
C165        C166   1.402       .  A
C165        H170   1.084       .  S
C166        C167   1.406       .  A
C167        C168   1.507       .  S
C168        H172   1.111       .  S
C168        H173   1.110       .  S
C168        H174   1.110       .  S
C171        H175   1.108       .  S
C171        H176   1.110       .  S
C171        H177   1.111       .  S
C178        C179   1.406       .  A
C178        C183   1.401       .  A
C178        H185   1.084       .  S
C179        C180   1.420       .  A
C180        C181   1.405       .  A
C180        C187   1.509       .  S
C181        C182   1.401       .  A
C181        H186   1.084       .  S
C182        C183   1.410       .  A
C182        C455   1.476       .  S
C183        C184   1.507       .  S
C184        H188   1.111       .  S
C184        H189   1.110       .  S
C184        H640   1.111       .  S
C187        H191   1.110       .  S
C187        H193   1.111       .  S
C187        H642   1.110       .  S
H190        C634   1.111       .  S
H192        C637   1.110       .  S
C194        C195   1.396       .  A
C194        C199   1.394       .  A
C194        H201   1.072       .  S
C195        C646   1.423       .  A
C196        C197   1.409       .  A
C196        C645   1.421   1_545  A
C196        C203   1.507       .  S
C197        C648   1.403   1_545  A
C197        H202   1.085       .  S
C198        C199   1.411       .  A
C198        C647   1.403       .  A
C198        C453   1.479       .  S
C199        C200   1.509       .  S
C200        H204   1.111       .  S
C200        H205   1.111       .  S
C200        H206   1.109       .  S
C203        H207   1.104       .  S
C203        H208   1.110       .  S
C203        H209   1.110       .  S
C210        C211   1.402       .  A
C210        C215   1.405       .  A
C210        H217   1.084       .  S
C211        C662   1.411       .  A
C212        C661   1.411   1_545  A
C212        C663   1.402       .  A
C212        C219   1.507       .  S
C213        C214   1.403       .  A
C213        C662   1.403       .  A
C213        H668   1.084       .  S
C214        C215   1.413       .  A
C215        C216   1.507       .  S
C216        H220   1.111       .  S
C216        H221   1.109       .  S
C216        H222   1.111       .  S
H218        C663   1.084       .  S
C219        H223   1.110       .  S
C219        H224   1.109       .  S
C219        H225   1.111       .  S
C226        C227   1.409       .  A
C226        C231   1.405       .  A
C226        C436   1.478       .  S
C227        C678   1.403       .  A
C227        H232   1.084       .  S
C228        C677   1.400       .  A
C228        C229   1.401       .  A
C228        C873   1.476       .  S
C229        C230   1.397       .  A
C229        H233   1.085       .  S
C230        C681   1.402       .  A
C230        C857   1.477       .  S
C231        C680   1.401       .  A
C231        H234   1.084       .  S
C235        C236   1.405       .  A
C235        C240   1.410       .  A
C235        C439   1.479       .  S
C236        C237   1.397       .  A
C236        H241   1.084       .  S
C237        C238   1.397       .  A
C237        C391   1.474       .  S
C238        C239   1.401       .  A
C238        H242   1.085       .  S
C239        C240   1.405       .  A
C239        C372   1.483       .  S
C240        H243   1.083       .  S
C244       C1145   1.404       .  A
C244       C1149   1.407       .  A
C244        C359   1.479       .  S
C245       C1144   1.404       .  A
C245        C246   1.398       .  A
C245       H1150   1.084       .  S
C246        C247   1.400       .  A
C246        C340   1.476       .  S
C247        C248   1.405       .  A
C247        H251   1.084       .  S
C248        C249   1.408       .  A
C248        C324   1.493       .  S
C249       C1144   1.408       .  A
C249       H1152   1.083       .  S
H250       C1145   1.084       .  S
H252       C1149   1.083       .  S
C253        C254   1.411       .  A
C253        C258   1.407       .  A
C253        C356   1.483       .  S
C254        C255   1.405       .  A
C254        H259   1.083       .  S
C255        C256   1.401       .  A
C255        C308   1.484       .  S
C256        C257   1.397       .  A
C256        H260   1.085       .  S
C257        C258   1.399       .  A
C257        C292   1.474       .  S
C258        H261   1.084       .  S
O262        C270   1.291       .  A
O262       Co732   2.049   1_545  S
O263        C271   1.264       .  A
O263       Co283   1.993       .  S
O264       C1172   1.263       .  A
O264       Co284   1.992   1_655  S
O265        C273   1.274       .  A
O266        C272   1.267       .  A
O266       Co733   2.008   1_545  S
O267        C273   1.294       .  A
O267       Co282   2.061       .  S
O268        C271   1.260       .  A
O268       Co285   1.995   1_556  S
O269       C1170   1.275       .  A
C270        C343   1.480       .  S
C270       O1169   1.275       .  A
C271        C375   1.481       .  S
C272        C327   1.479       .  S
C272       O1164   1.262       .  A
C273        C388   1.487       .  S
O274        C287   1.255       .  A
O274       Co282   2.006       .  S
O275        C288   1.266       .  A
O275      Co1183   1.977   1_455  S
O276        C739   1.241       .  A
O277        C290   1.277       .  A
O277       Co285   2.018   1_556  S
O278        C290   1.267       .  A
O278       Co283   1.972       .  S
O279        C289   1.259       .  A
O279      Co1182   2.009   1_455  S
O280        C287   1.245       .  A
O281        C738   1.271   1_545  A
O281       Co284   2.013       .  S
Co282       O712   2.057       .  S
Co282      O1179   2.008       .  S
Co283       O716   2.011       .  S
Co283      O1175   1.976       .  S
Co283       O286   2.068       .  S
Co284      O1636   1.972   1_445  S
Co285       O286   1.965   1_554  S
O286      Co1634   1.968   1_556  S
C287        C311   1.490       .  S
C288        C404   1.489       .  S
C288        O731   1.271       .  A
C289        C420   1.488       .  S
C289        O726   1.243       .  A
C290        C295   1.488       .  S
C291        C292   1.399       .  A
C291        C296   1.404       .  A
C291        H298   1.084       .  S
C292        C293   1.407       .  A
C293        C294   1.403       .  A
C293        C300   1.506       .  S
C294        C295   1.409       .  A
C294        H299   1.083       .  S
C295        C296   1.422       .  A
C296        C297   1.509       .  S
C297        H301   1.111       .  S
C297        H302   1.110       .  S
C297        H303   1.109       .  S
C300        H304   1.110       .  S
C300        H305   1.110       .  S
C300        H306   1.111       .  S
C307        C308   1.401       .  A
C307        C312   1.400       .  A
C307       H1214   1.085       .  S
C308        C309   1.412       .  A
C309        C310   1.411       .  A
C309        C316   1.506       .  S
C310        C311   1.408       .  A
C310        H315   1.083       .  S
C311        C312   1.411       .  A
C312       C1213   1.494       .  S
C313       C1212   1.494   1_455  S
C313        H317   1.111       .  S
C313        H318   1.108       .  S
C313        H319   1.111       .  S
H314       C1207   1.085   1_455  S
C316        H320   1.111       .  S
C316        H321   1.109       .  S
C316        H322   1.111       .  S
C323        C324   1.407       .  A
C323        C328   1.407       .  A
C323        H330   1.084       .  S
C324       C1225   1.419       .  A
C325       C1224   1.419       .  A
C325        C326   1.401       .  A
C325        C332   1.509       .  S
C326        C327   1.402       .  A
C326        H331   1.084       .  S
C327       C1228   1.413       .  A
C328       C1227   1.413       .  A
C328        C329   1.506       .  S
C329        H333   1.111   1_655  S
C329        H334   1.109   1_655  S
C329        H335   1.110       .  S
C332        H336   1.110       .  S
C332        H337   1.108       .  S
C332        H338   1.111       .  S
C339        C340   1.402   1_455  A
C339        C344   1.406       .  A
C339        H346   1.084       .  S
C340       C1241   1.409       .  A
C341       C1240   1.408       .  A
C341        C342   1.402       .  A
C341        C348   1.507       .  S
C342        C343   1.406       .  A
C342        H347   1.084       .  S
C343       C1244   1.414       .  A
C344       C1243   1.414   1_455  A
C344        C345   1.503       .  S
C345        H349   1.111       .  S
C345        H350   1.110       .  S
C345        H351   1.110       .  S
C348        H352   1.110       .  S
C348        H353   1.111       .  S
C348        H354   1.111       .  S
C355        C356   1.404       .  A
C355       C1260   1.403       .  A
C355       H1262   1.084       .  S
C356        C357   1.414       .  A
C357        C358   1.406       .  A
C357        C364   1.507       .  S
C358        C359   1.403       .  A
C358        H363   1.084       .  S
C359       C1260   1.412       .  A
C360       C1255   1.403       .  A
C360       C1259   1.413       .  A
C360        C361   1.508   1_655  S
C361        H365   1.111       .  S
C361        H366   1.110       .  S
C361        H367   1.109   1_455  S
H362       C1255   1.084       .  S
C364        H368   1.108       .  S
C364        H369   1.111       .  S
C364        H370   1.111       .  S
C371        C372   1.408       .  A
C371        C376   1.412       .  A
C371        H378   1.084       .  S
C372        C373   1.413       .  A
C373        C374   1.395       .  A
C373        C380   1.511       .  S
C374        C375   1.404       .  A
C374        H379   1.084       .  S
C375        C376   1.413       .  A
C376        C377   1.505       .  S
C377        H381   1.111       .  S
C377        H832   1.109       .  S
C377        H383   1.110       .  S
C380        H384   1.107       .  S
C380        H385   1.110       .  S
C380        H386   1.111       .  S
H382        C827   1.107       .  S
C387        C388   1.410       .  A
C387        C392   1.400       .  A
C387        H394   1.084       .  S
C388        C389   1.417       .  A
C389        C390   1.407       .  A
C389        C396   1.505       .  S
C390        C391   1.402       .  A
C390        H395   1.084       .  S
C391        C392   1.406       .  A
C392        C393   1.508       .  S
C393        H397   1.111       .  S
C393        H398   1.110       .  S
C393        H399   1.110       .  S
C396        H400   1.108       .  S
C396        H401   1.110       .  S
C396        H402   1.111       .  S
C403        C404   1.407       .  A
C403        C408   1.403       .  A
C403        H410   1.084       .  S
C404        C405   1.421       .  A
C405        C406   1.406       .  A
C405        C412   1.508       .  S
C406        C407   1.401       .  A
C406        H411   1.084       .  S
C407        C408   1.410       .  A
C407        C680   1.478       .  S
C408        C409   1.507       .  S
C409        H413   1.111       .  S
C409        H414   1.110       .  S
C409        H865   1.111       .  S
C412        H416   1.110       .  S
C412        H867   1.110       .  S
C412        H418   1.111       .  S
H415        C859   1.111       .  S
H417        C862   1.110       .  S
C419        C420   1.396       .  A
C419        C424   1.396       .  A
C419        H426   1.069       .  S
C420        C871   1.424       .  A
C421        C870   1.420   1_545  A
C421        C422   1.409       .  A
C421        C428   1.507       .  S
C422        C873   1.403   1_545  A
C422        H427   1.085       .  S
C423        C872   1.403       .  A
C423        C424   1.411       .  A
C423        C678   1.481       .  S
C424        C425   1.509       .  S
C425        H429   1.110       .  S
C425        H430   1.110       .  S
C425        H431   1.109       .  S
C428        H432   1.104       .  S
C428        H433   1.110       .  S
C428        H434   1.109       .  S
C435        C436   1.403       .  A
C435        C440   1.405       .  A
C435        H442   1.084       .  S
C436        C887   1.411       .  A
C437        C886   1.412   1_545  A
C437        C888   1.402       .  A
C437        C444   1.507       .  S
C438        C887   1.404       .  A
C438        C439   1.403       .  A
C438        H893   1.084       .  S
C439        C440   1.413       .  A
C440        C441   1.507       .  S
C441        H445   1.111       .  S
C441        H446   1.109       .  S
C441        H447   1.111       .  S
H443        C888   1.084       .  S
C444        H448   1.110       .  S
C444        H449   1.109       .  S
C444        H450   1.111       .  S
C451        C452   1.406       .  A
C451        C456   1.406       .  A
C451        C661   1.476       .  S
C452        H457   1.084       .  S
C453        C454   1.401       .  A
C454        C455   1.397       .  A
C454        H458   1.085       .  S
C456        H459   1.084       .  S
C460        C461   1.405       .  A
C460        C465   1.409       .  A
C460        C664   1.479       .  S
C461        C462   1.397       .  A
C461        H466   1.084       .  S
C462        C463   1.397       .  A
C462        C616   1.474       .  S
C463        C464   1.401       .  A
C463        H467   1.085       .  S
C464        C465   1.404       .  A
C464        C597   1.480       .  S
C465        H468   1.083       .  S
C469       C1370   1.404       .  A
C469       C1374   1.409       .  A
C469        C584   1.483       .  S
C470       C1369   1.404       .  A
C470        C471   1.398       .  A
C470       H1375   1.084       .  S
C471        C472   1.400       .  A
C471        C565   1.476       .  S
C472        C473   1.406       .  A
C472        H476   1.084       .  S
C473        C474   1.409       .  A
C473        C549   1.495       .  S
C474       C1369   1.409       .  A
C474       H1377   1.083       .  S
H475       C1370   1.084       .  S
H477       C1374   1.083       .  S
C478        C479   1.413       .  A
C478        C483   1.408       .  A
C478        C581   1.487       .  S
C479        C480   1.407       .  A
C479        H484   1.083       .  S
C480        C481   1.401       .  A
C480        C533   1.488       .  S
C481        C482   1.398       .  A
C481        H485   1.085       .  S
C482        C483   1.399       .  A
C482        C517   1.476       .  S
C483        H486   1.084       .  S
O487        C495   1.290       .  A
O488        C496   1.265       .  A
O488       Co508   2.000       .  S
O489       C1397   1.263       .  A
O489       Co509   1.993   1_655  S
O490        C498   1.274       .  A
O490       Co735   1.907       .  S
O491        C497   1.268       .  A
O492        C498   1.294       .  A
O492       Co507   2.061       .  S
O493        C496   1.260       .  A
O493       Co510   1.988       .  S
O494       C1395   1.272       .  A
O494       Co734   1.917       .  S
C495        C568   1.480       .  S
C495       O1394   1.272       .  A
C496        C600   1.480       .  S
C497        C552   1.481       .  S
C497       O1389   1.264       .  A
C498        C613   1.490       .  S
O499        C512   1.256       .  A
O499       Co507   2.011       .  S
O500        C513   1.268       .  A
O500      Co1408   1.978   1_455  S
O501       Co734   1.967       .  S
O502        C515   1.278       .  A
O502       Co510   2.027       .  S
O503        C515   1.265       .  A
O503       Co508   1.968       .  S
O504        C514   1.258       .  A
O504      Co1407   2.001   1_455  S
O505        C512   1.246       .  A
O505       Co735   1.974       .  S
O506       Co509   2.009       .  S
Co507      O1404   2.000       .  S
Co507       O736   2.215   1_554  S
Co508      O1400   1.978       .  S
Co508       O511   2.071       .  S
Co509       O719   1.921       .  S
Co509       O726   1.969       .  S
Co509       O961   1.971   1_455  S
Co510       O715   1.897       .  S
Co510       O730   1.975       .  S
Co510       O511   1.973       .  S
O511       Co732   2.208       .  S
O511       Co959   1.973   1_565  S
C512        C536   1.495       .  S
C513        C629   1.488       .  S
C514        C645   1.482       .  S
C515        C520   1.490       .  S
C516        C517   1.399       .  A
C516        C521   1.403       .  A
C516        H523   1.085       .  S
C517        C518   1.407       .  A
C518        C519   1.404       .  A
C518        C525   1.505       .  S
C519        C520   1.409       .  A
C519        H524   1.083       .  S
C520        C521   1.423       .  A
C521        C522   1.510       .  S
C522        H526   1.111       .  S
C522        H527   1.110       .  S
C522        H528   1.109       .  S
C525        H529   1.110       .  S
C525        H530   1.110       .  S
C525        H531   1.111       .  S
C532        C533   1.401       .  A
C532        C537   1.402       .  A
C532       H1439   1.085       .  S
C533        C534   1.413       .  A
C534        C535   1.412       .  A
C534        C541   1.505       .  S
C535        C536   1.409       .  A
C535        H540   1.083       .  S
C536        C537   1.412       .  A
C537       C1438   1.492       .  S
C538       C1437   1.492   1_455  S
C538        H542   1.111       .  S
C538        H543   1.109       .  S
C538        H544   1.110       .  S
H539       C1432   1.085   1_455  S
C541        H545   1.111       .  S
C541        H546   1.109       .  S
C541        H547   1.111       .  S
C548        C549   1.408       .  A
C548        C553   1.408       .  A
C548        H555   1.084       .  S
C549       C1450   1.420       .  A
C550       C1449   1.420       .  A
C550        C551   1.402       .  A
C550        C557   1.509       .  S
C551        C552   1.402       .  A
C551        H556   1.084       .  S
C552       C1453   1.413       .  A
C553       C1452   1.413       .  A
C553        C554   1.506       .  S
C554        H558   1.111   1_655  S
C554        H559   1.109   1_655  S
C554        H560   1.110       .  S
C557        H561   1.111       .  S
C557        H562   1.108       .  S
C557        H563   1.111       .  S
C564        C565   1.402   1_455  A
C564        C569   1.406       .  A
C564        H571   1.084       .  S
C565       C1466   1.409       .  A
C566       C1465   1.409       .  A
C566        C567   1.402       .  A
C566        C573   1.507       .  S
C567        C568   1.406       .  A
C567        H572   1.084       .  S
C568       C1469   1.414       .  A
C569       C1468   1.414   1_455  A
C569        C570   1.503       .  S
C570        H574   1.111       .  S
C570        H575   1.110       .  S
C570        H576   1.110       .  S
C573        H577   1.110       .  S
C573        H578   1.111       .  S
C573        H579   1.111       .  S
C580        C581   1.405       .  A
C580       C1485   1.404       .  A
C580       H1487   1.084       .  S
C581        C582   1.415       .  A
C582        C583   1.407       .  A
C582        C589   1.507       .  S
C583        C584   1.404       .  A
C583        H588   1.084       .  S
C584       C1485   1.413       .  A
C585       C1480   1.404       .  A
C585       C1484   1.413       .  A
C585        C586   1.508   1_655  S
C586        H590   1.111       .  S
C586        H591   1.110       .  S
C586        H592   1.109   1_455  S
H587       C1480   1.084       .  S
C589        H593   1.108       .  S
C589        H594   1.110       .  S
C589        H595   1.111       .  S
C596        C597   1.406   1_545  A
C596        C601   1.412   1_545  A
C596        H603   1.084       .  S
C597        C598   1.411       .  A
C598        C599   1.395       .  A
C598        C605   1.510       .  S
C599        C600   1.403       .  A
C599        H604   1.084       .  S
C600        C601   1.414       .  A
C601        C602   1.505   1_565  S
C602        H606   1.111       .  S
C602        H608   1.110       .  S
C605        H609   1.108       .  S
C605        H610   1.110       .  S
C605        H611   1.110       .  S
C612        C613   1.411       .  A
C612        C617   1.400   1_565  A
C612        H619   1.084   1_565  S
C613        C614   1.418       .  A
C614        C615   1.407       .  A
C614        C621   1.505       .  S
C615        C616   1.401       .  A
C615        H620   1.084       .  S
C616        C617   1.406   1_565  A
C617        C618   1.508       .  S
C618        H622   1.110       .  S
C618        H623   1.110       .  S
C618        H624   1.110       .  S
C621        H625   1.108       .  S
C621        H626   1.110       .  S
C621        H627   1.111       .  S
C628        C629   1.407       .  A
C628        C633   1.401       .  A
C628        H635   1.084       .  S
C629        C630   1.421   1_565  A
C630        C631   1.406       .  A
C630        C637   1.508       .  S
C631        C632   1.401   1_545  A
C631        H636   1.084       .  S
C632        C633   1.409       .  A
C633        C634   1.508       .  S
C634        H638   1.111       .  S
C634        H639   1.110       .  S
C637        H641   1.110       .  S
C637        H643   1.111       .  S
C644        C645   1.394       .  A
C644        C649   1.393       .  A
C644        H651   1.068       .  S
C646        C647   1.410       .  A
C646        C653   1.507       .  S
C647        H652   1.085       .  S
C648        C649   1.410       .  A
C649        C650   1.509       .  S
C650        H654   1.110       .  S
C650        H655   1.111       .  S
C650        H656   1.108       .  S
C653        H657   1.103       .  S
C653        H658   1.110       .  S
C653        H659   1.110       .  S
C660        C661   1.403       .  A
C660        C665   1.404       .  A
C660        H667   1.084       .  S
C662        C669   1.506       .  S
C663        C664   1.403   1_545  A
C664        C665   1.414       .  A
C665        C666   1.507       .  S
C666        H670   1.111       .  S
C666        H671   1.108       .  S
C666        H672   1.111       .  S
C669        H673   1.110       .  S
C669        H674   1.110       .  S
C669        H675   1.111       .  S
C676        C677   1.407       .  A
C676        C681   1.406       .  A
C676        C886   1.477       .  S
C677        H682   1.084       .  S
C678        C679   1.401       .  A
C679        C680   1.397       .  A
C679        H683   1.085       .  S
C681        H684   1.084       .  S
C685        C686   1.405       .  A
C685        C690   1.410       .  A
C685        C889   1.480       .  S
C686        C687   1.397       .  A
C686        H691   1.084       .  S
C687        C688   1.398       .  A
C687        C841   1.475       .  S
C688        C689   1.402       .  A
C688        H692   1.085       .  S
C689        C690   1.404       .  A
C689        C822   1.482       .  S
C690        H693   1.083       .  S
C694       C1595   1.405       .  A
C694       C1599   1.409       .  A
C694        C809   1.483       .  S
C695       C1594   1.405       .  A
C695        C696   1.399       .  A
C695       H1600   1.084       .  S
C696        C697   1.400       .  A
C696        C790   1.478       .  S
C697        C698   1.406       .  A
C697        H701   1.084       .  S
C698        C699   1.409       .  A
C698        C774   1.495       .  S
C699       C1594   1.410       .  A
C699       H1602   1.083       .  S
H700       C1595   1.084       .  S
H702       C1599   1.083       .  S
C703        C704   1.412       .  A
C703        C708   1.407       .  A
C703        C806   1.486       .  S
C704        C705   1.406       .  A
C704        H709   1.083       .  S
C705        C706   1.401       .  A
C705        C758   1.485       .  S
C706        C707   1.398       .  A
C706        H710   1.085       .  S
C707        C708   1.398       .  A
C707        C742   1.474       .  S
C708        H711   1.084       .  S
O712        C720   1.290       .  A
O713        C721   1.265       .  A
O713       Co733   1.998       .  S
O714       C1622   1.263       .  A
O714       Co734   1.994   1_656  S
O715        C723   1.272       .  A
O716        C722   1.268       .  A
O717        C723   1.294       .  A
O717       Co732   2.066       .  S
O718        C721   1.261       .  A
O718       Co735   1.997   1_556  S
O719       C1620   1.273       .  A
C720        C793   1.480       .  S
C720       O1619   1.273       .  A
C721        C825   1.481       .  S
C722        C777   1.480       .  S
C722       O1614   1.262       .  A
C723        C838   1.485       .  S
O724        C737   1.255       .  A
O724       Co732   1.999       .  S
O725        C738   1.267       .  A
O725      Co1633   1.977   1_455  S
O727        C740   1.277       .  A
O727       Co735   2.020   1_556  S
O728        C740   1.265       .  A
O728       Co733   1.968       .  S
O729        C739   1.255       .  A
O729      Co1632   1.998   1_455  S
O730        C737   1.248       .  A
O731       Co734   2.014   1_556  S
Co732      O1629   1.994       .  S
Co733      O1625   1.977       .  S
Co733       O736   2.067       .  S
Co734      O1186   1.969   1_454  S
Co735       O736   1.967   1_554  S
O736      Co1184   1.971   1_565  S
C737        C761   1.494       .  S
C738        C854   1.489       .  S
C739        C870   1.481       .  S
C740        C745   1.488       .  S
C741        C742   1.398       .  A
C741        C746   1.402       .  A
C741        H748   1.085       .  S
C742        C743   1.407       .  A
C743        C744   1.404       .  A
C743        C750   1.505       .  S
C744        C745   1.409       .  A
C744        H749   1.083       .  S
C745        C746   1.422       .  A
C746        C747   1.510       .  S
C747        H751   1.111       .  S
C747        H752   1.110       .  S
C747        H753   1.109       .  S
C750        H754   1.110       .  S
C750        H755   1.110       .  S
C750        H756   1.111       .  S
C757        C758   1.401       .  A
C757        C762   1.403       .  A
C757       H1664   1.085       .  S
C758        C759   1.412       .  A
C759        C760   1.409       .  A
C759        C766   1.506       .  S
C760        C761   1.409       .  A
C760        H765   1.083       .  S
C761        C762   1.414       .  A
C762       C1663   1.495       .  S
C763       C1662   1.494       .  S
C763        H767   1.111       .  S
C763        H768   1.108       .  S
C763        H769   1.110       .  S
H764       C1657   1.085   1_455  S
C766        H770   1.111       .  S
C766        H771   1.109       .  S
C766        H772   1.111       .  S
C773        C774   1.408       .  A
C773        C778   1.408       .  A
C773        H780   1.084       .  S
C774       C1675   1.419       .  A
C775       C1674   1.419       .  A
C775        C776   1.402       .  A
C775        C782   1.509       .  S
C776        C777   1.402       .  A
C776        H781   1.084       .  S
C777       C1678   1.413       .  A
C778       C1677   1.413       .  A
C778        C779   1.506   1_655  S
C779        H783   1.111       .  S
C779        H784   1.109       .  S
C779        H785   1.110   1_455  S
C782        H786   1.110       .  S
C782        H787   1.108       .  S
C782        H788   1.111       .  S
C789        C790   1.402   1_455  A
C789        C794   1.406       .  A
C789        H796   1.084       .  S
C790       C1691   1.410       .  A
C791       C1690   1.410       .  A
C791        C792   1.404       .  A
C791        C798   1.507       .  S
C792        C793   1.406       .  A
C792        H797   1.084       .  S
C793       C1694   1.414       .  A
C794       C1693   1.414   1_455  A
C794        C795   1.503       .  S
C795        H799   1.111       .  S
C795        H800   1.110       .  S
C795        H801   1.110       .  S
C798        H802   1.110       .  S
C798        H803   1.111       .  S
C798        H804   1.111       .  S
C805        C806   1.405       .  A
C805       C1710   1.403       .  A
C805       H1712   1.084       .  S
C806        C807   1.415       .  A
C807        C808   1.407       .  A
C807        C814   1.507       .  S
C808        C809   1.404       .  A
C808        H813   1.084       .  S
C809       C1710   1.413       .  A
C810       C1705   1.404       .  A
C810       C1709   1.413       .  A
C810        C811   1.508   1_655  S
C811        H815   1.111       .  S
C811        H816   1.110       .  S
C811        H817   1.109   1_455  S
H812       C1705   1.084       .  S
C814        H818   1.108       .  S
C814        H819   1.110       .  S
C814        H820   1.111       .  S
C821        C822   1.407   1_545  A
C821        C826   1.413   1_545  A
C821        H828   1.084       .  S
C822        C823   1.412       .  A
C823        C824   1.396       .  A
C823        C830   1.510       .  S
C824        C825   1.403       .  A
C824        H829   1.084       .  S
C825        C826   1.413       .  A
C826        C827   1.505   1_565  S
C827        H831   1.111       .  S
C827        H833   1.110       .  S
C830        H834   1.108       .  S
C830        H835   1.110       .  S
C830        H836   1.111       .  S
C837        C838   1.409       .  A
C837        C842   1.401   1_565  A
C837        H844   1.084   1_565  S
C838        C839   1.417       .  A
C839        C840   1.407       .  A
C839        C846   1.506       .  S
C840        C841   1.402       .  A
C840        H845   1.084       .  S
C841        C842   1.407   1_565  A
C842        C843   1.508       .  S
C843        H847   1.110       .  S
C843        H848   1.110       .  S
C843        H849   1.110       .  S
C846        H850   1.109       .  S
C846        H851   1.110       .  S
C846        H852   1.111       .  S
C853        C854   1.407       .  A
C853        C858   1.402       .  A
C853        H860   1.084       .  S
C854        C855   1.422   1_565  A
C855        C856   1.407       .  A
C855        C862   1.508       .  S
C856        C857   1.401   1_545  A
C856        H861   1.084       .  S
C857        C858   1.409       .  A
C858        C859   1.508       .  S
C859        H863   1.111       .  S
C859        H864   1.110       .  S
C862        H866   1.110       .  S
C862        H868   1.111       .  S
C869        C870   1.395       .  A
C869        C874   1.393       .  A
C869        H876   1.071       .  S
C871        C872   1.411       .  A
C871        C878   1.507       .  S
C872        H877   1.084       .  S
C873        C874   1.410       .  A
C874        C875   1.509       .  S
C875        H879   1.110       .  S
C875        H880   1.111       .  S
C875        H881   1.108       .  S
C878        H882   1.103       .  S
C878        H883   1.110       .  S
C878        H884   1.109       .  S
C885        C886   1.403       .  A
C885        C890   1.405       .  A
C885        H892   1.084       .  S
C887        C894   1.506       .  S
C888        C889   1.403   1_545  A
C889        C890   1.414       .  A
C890        C891   1.507       .  S
C891        H895   1.111       .  S
C891        H896   1.108       .  S
C891        H897   1.111       .  S
C894        H898   1.110       .  S
C894        H899   1.110       .  S
C894        H900   1.111       .  S
C901        C902   1.407       .  A
C901        C906   1.405       .  A
C901       C1111   1.477       .  S
C902       C1353   1.402       .  A
C902        H907   1.084       .  S
C903       C1352   1.400       .  A
C903        C904   1.401       .  A
C903       C1548   1.476       .  S
C904        C905   1.396       .  A
C904        H908   1.085       .  S
C905       C1356   1.401       .  A
C905       C1532   1.476       .  S
C906       C1355   1.401       .  A
C906        H909   1.084       .  S
C910        C911   1.405       .  A
C910        C915   1.409       .  A
C910       C1114   1.479       .  S
C911        C912   1.398       .  A
C911        H916   1.084       .  S
C912        C913   1.398       .  A
C912       C1066   1.475       .  S
C913        C914   1.402       .  A
C913        H917   1.085       .  S
C914        C915   1.405       .  A
C914       C1047   1.485       .  S
C915        H918   1.083       .  S
C919       C1034   1.481       .  S
C920        C921   1.398       .  A
C921        C922   1.400       .  A
C921       C1015   1.476       .  S
C922        C923   1.406       .  A
C922        H926   1.084       .  S
C923        C924   1.408       .  A
C923        C999   1.493       .  S
C928        C929   1.412       .  A
C928        C933   1.407       .  A
C928       C1031   1.485       .  S
C929        C930   1.406       .  A
C929        H934   1.083       .  S
C930        C931   1.401       .  A
C930        C983   1.486       .  S
C931        C932   1.397       .  A
C931        H935   1.085       .  S
C932        C933   1.399       .  A
C932        C967   1.475       .  S
C933        H936   1.084       .  S
O937        C945   1.290   1_655  A
O937      Co1407   2.050   1_545  S
O938        C946   1.264       .  A
O938       Co958   1.992       .  S
O939       Co959   1.993       .  S
O940        C948   1.274       .  A
O940      Co1185   1.908       .  S
O941        C947   1.266       .  A
O941      Co1408   2.008   1_545  S
O942        C948   1.294       .  A
O942       Co957   2.062       .  S
O943        C946   1.263       .  A
O943       Co960   2.001       .  S
O944      Co1184   1.920   1_554  S
C945       C1018   1.480   1_455  S
C946       C1050   1.484       .  S
C947       C1002   1.479       .  S
C948       C1063   1.488       .  S
O949        C962   1.256       .  A
O949       Co957   2.010       .  S
O950        C963   1.267       .  A
O951       C1414   1.242       .  A
O951      Co1184   1.964   1_564  S
O952        C965   1.276       .  A
O952       Co960   2.015       .  S
O953        C965   1.269       .  A
O953       Co958   1.976       .  S
O954        C964   1.259       .  A
O955        C962   1.244       .  A
O955      Co1185   1.971       .  S
O956       C1413   1.271   1_545  A
O956       Co959   2.011       .  S
Co957      O1387   2.055       .  S
Co957      O1186   2.218   1_554  S
Co958      O1391   2.009       .  S
Co958       O961   2.069       .  S
Co959      O1169   1.921       .  S
Co959      O1176   1.971   1_545  S
Co960      O1165   1.907       .  S
Co960      O1180   1.973       .  S
Co960       O961   1.968       .  S
O961      Co1182   2.217       .  S
C962        C986   1.492       .  S
C963       C1079   1.485       .  S
C963       O1406   1.271       .  A
C964       C1095   1.486       .  S
C964       O1401   1.244       .  A
C965        C970   1.490       .  S
C966        C967   1.399       .  A
C966        C971   1.404       .  A
C966        H973   1.085   1_655  S
C967        C968   1.407       .  A
C968        C969   1.404       .  A
C968        C975   1.506       .  S
C969        C970   1.411       .  A
C969        H974   1.083       .  S
C970        C971   1.421       .  A
C971        C972   1.509   1_655  S
C972        H976   1.111       .  S
C972        H977   1.110       .  S
C972        H978   1.109       .  S
C975        H979   1.110       .  S
C975        H980   1.110       .  S
C975        H981   1.111       .  S
C982        C983   1.401       .  A
C982        C987   1.400       .  A
C983        C984   1.413       .  A
C984        C985   1.412       .  A
C984        C991   1.506       .  S
C985        C986   1.410       .  A
C985        H990   1.084       .  S
C986        C987   1.411       .  A
C988        H992   1.111       .  S
C988        H993   1.109       .  S
C988        H994   1.110       .  S
C991        H995   1.110       .  S
C991        H996   1.109       .  S
C991        H997   1.111       .  S
C998        C999   1.407       .  A
C998       C1003   1.407       .  A
C998       H1005   1.084       .  S
C1000      C1001   1.402       .  A
C1000      C1007   1.509       .  S
C1001      C1002   1.402       .  A
C1001      H1006   1.085       .  S
C1003      C1004   1.506       .  S
C1004      H1008   1.111       .  S
C1004      H1009   1.109       .  S
C1004      H1010   1.110       .  S
C1007      H1011   1.110       .  S
C1007      H1012   1.108       .  S
C1007      H1013   1.111       .  S
C1014      C1015   1.402       .  A
C1014      C1019   1.406       .  A
C1014      H1021   1.084       .  S
C1016      C1017   1.401       .  A
C1016      C1023   1.507       .  S
C1017      C1018   1.406       .  A
C1017      H1022   1.084       .  S
C1019      C1020   1.503       .  S
C1020      H1024   1.111       .  S
C1020      H1025   1.110       .  S
C1020      H1026   1.110       .  S
C1023      H1027   1.110       .  S
C1023      H1028   1.110       .  S
C1023      H1029   1.111       .  S
C1030      C1031   1.405       .  A
C1031      C1032   1.414       .  A
C1032      C1033   1.406       .  A
C1032      C1039   1.507       .  S
C1033      C1034   1.403       .  A
C1033      H1038   1.084       .  S
C1035      C1036   1.508       .  S
C1036      H1040   1.111       .  S
C1036      H1041   1.110       .  S
C1036      H1042   1.109       .  S
C1039      H1043   1.108       .  S
C1039      H1044   1.110       .  S
C1039      H1045   1.111       .  S
C1046      C1047   1.408       .  A
C1046      C1051   1.414       .  A
C1046      H1053   1.084       .  S
C1047      C1048   1.413       .  A
C1048      C1049   1.396       .  A
C1048      C1055   1.511       .  S
C1049      C1050   1.405       .  A
C1049      H1054   1.084       .  S
C1050      C1051   1.413       .  A
C1051      C1052   1.504       .  S
C1052      H1056   1.111       .  S
C1052      H1507   1.108       .  S
C1052      H1058   1.110       .  S
C1055      H1059   1.108       .  S
C1055      H1060   1.110       .  S
C1055      H1061   1.111       .  S
H1057      C1502   1.106       .  S
C1062      C1063   1.410       .  A
C1062      C1067   1.401       .  A
C1062      H1069   1.084       .  S
C1063      C1064   1.417       .  A
C1064      C1065   1.406       .  A
C1064      C1071   1.505       .  S
C1065      C1066   1.402       .  A
C1065      H1070   1.084       .  S
C1066      C1067   1.406       .  A
C1067      C1068   1.507       .  S
C1068      H1072   1.111       .  S
C1068      H1073   1.110       .  S
C1068      H1074   1.110       .  S
C1071      H1075   1.108       .  S
C1071      H1076   1.110       .  S
C1071      H1077   1.111       .  S
C1078      C1079   1.406       .  A
C1078      C1083   1.401       .  A
C1078      H1085   1.084       .  S
C1079      C1080   1.420       .  A
C1080      C1081   1.405       .  A
C1080      C1087   1.509       .  S
C1081      C1082   1.402       .  A
C1081      H1086   1.084       .  S
C1082      C1083   1.409       .  A
C1082      C1355   1.476       .  S
C1083      C1084   1.507       .  S
C1084      H1088   1.111       .  S
C1084      H1089   1.109       .  S
C1084      H1540   1.111       .  S
C1087      H1091   1.110       .  S
C1087      H1542   1.110       .  S
C1087      H1093   1.111       .  S
H1090      C1534   1.111       .  S
H1092      C1537   1.110       .  S
C1094      C1095   1.396       .  A
C1094      C1099   1.394       .  A
C1094      H1101   1.072       .  S
C1095      C1546   1.423       .  A
C1096      C1545   1.421   1_545  A
C1096      C1097   1.409       .  A
C1096      C1103   1.507       .  S
C1097      C1548   1.403   1_545  A
C1097      H1102   1.085       .  S
C1098      C1547   1.402       .  A
C1098      C1099   1.411       .  A
C1098      C1353   1.479       .  S
C1099      C1100   1.509       .  S
C1100      H1104   1.111       .  S
C1100      H1105   1.111       .  S
C1100      H1106   1.108       .  S
C1103      H1107   1.104       .  S
C1103      H1108   1.110       .  S
C1103      H1109   1.110       .  S
C1110      C1111   1.403       .  A
C1110      C1115   1.405       .  A
C1110      H1117   1.084       .  S
C1111      C1562   1.411       .  A
C1112      C1561   1.411   1_545  A
C1112      C1563   1.402       .  A
C1112      C1119   1.507       .  S
C1113      C1562   1.403       .  A
C1113      C1114   1.403       .  A
C1113      H1568   1.084       .  S
C1114      C1115   1.413       .  A
C1115      C1116   1.507       .  S
C1116      H1120   1.111       .  S
C1116      H1121   1.109       .  S
C1116      H1122   1.111       .  S
H1118      C1563   1.084       .  S
C1119      H1123   1.110       .  S
C1119      H1124   1.109       .  S
C1119      H1125   1.111       .  S
C1126      C1127   1.409       .  A
C1126      C1131   1.405       .  A
C1126      C1336   1.478       .  S
C1127      C1578   1.403       .  A
C1127      H1132   1.084       .  S
C1128      C1577   1.400       .  A
C1128      C1129   1.401       .  A
C1128      C1773   1.476       .  S
C1129      C1130   1.397       .  A
C1129      H1133   1.085       .  S
C1130      C1581   1.402       .  A
C1130      C1757   1.477       .  S
C1131      C1580   1.401       .  A
C1131      H1134   1.084       .  S
C1135      C1136   1.405       .  A
C1135      C1140   1.409       .  A
C1135      C1339   1.479       .  S
C1136      C1137   1.397       .  A
C1136      H1141   1.084       .  S
C1137      C1138   1.397       .  A
C1137      C1291   1.474       .  S
C1138      C1139   1.401       .  A
C1138      H1142   1.085       .  S
C1139      C1140   1.405       .  A
C1139      C1272   1.482       .  S
C1140      H1143   1.083       .  S
C1144      C1259   1.480       .  S
C1145      C1146   1.398       .  A
C1146      C1147   1.400       .  A
C1146      C1240   1.475       .  S
C1147      C1148   1.405       .  A
C1147      H1151   1.084       .  S
C1148      C1149   1.408       .  A
C1148      C1224   1.492       .  S
C1153      C1154   1.411       .  A
C1153      C1158   1.407       .  A
C1153      C1256   1.484       .  S
C1154      C1155   1.405       .  A
C1154      H1159   1.083       .  S
C1155      C1156   1.401       .  A
C1155      C1208   1.485       .  S
C1156      C1157   1.398       .  A
C1156      H1160   1.085       .  S
C1157      C1158   1.398       .  A
C1157      C1192   1.474       .  S
C1158      H1161   1.084       .  S
O1162      C1170   1.289   1_655  A
O1162     Co1632   2.048   1_545  S
O1163      C1171   1.264       .  A
O1163     Co1183   1.993       .  S
O1164     Co1184   1.992       .  S
O1165      C1173   1.274       .  A
O1166      C1172   1.267       .  A
O1166     Co1633   2.009   1_545  S
O1167      C1173   1.294       .  A
O1167     Co1182   2.061       .  S
O1168      C1171   1.260       .  A
O1168     Co1185   1.994   1_556  S
C1170      C1243   1.480   1_455  S
C1171      C1275   1.480       .  S
C1172      C1227   1.480       .  S
C1173      C1288   1.488       .  S
O1174      C1187   1.255       .  A
O1174     Co1182   2.004       .  S
O1175      C1188   1.266       .  A
O1176      C1639   1.241       .  A
O1177      C1190   1.277       .  A
O1177     Co1185   2.019   1_556  S
O1178      C1190   1.266       .  A
O1178     Co1183   1.971       .  S
O1179      C1189   1.258       .  A
O1180      C1187   1.245       .  A
O1181      C1638   1.271   1_545  A
O1181     Co1184   2.013       .  S
Co1182     O1612   2.054       .  S
Co1183     O1616   2.010       .  S
Co1183     O1186   2.069       .  S
Co1185     O1186   1.964   1_554  S
C1187      C1211   1.491       .  S
C1188      C1304   1.488       .  S
C1188      O1631   1.271       .  A
C1189      C1320   1.489       .  S
C1189      O1626   1.243       .  A
C1190      C1195   1.489       .  S
C1191      C1192   1.399       .  A
C1191      C1196   1.403       .  A
C1191      H1198   1.085   1_655  S
C1192      C1193   1.407       .  A
C1193      C1194   1.404       .  A
C1193      C1200   1.506       .  S
C1194      C1195   1.409       .  A
C1194      H1199   1.083       .  S
C1195      C1196   1.422       .  A
C1196      C1197   1.509   1_655  S
C1197      H1201   1.111       .  S
C1197      H1202   1.110       .  S
C1197      H1203   1.109       .  S
C1200      H1204   1.110       .  S
C1200      H1205   1.110       .  S
C1200      H1206   1.111       .  S
C1207      C1208   1.401       .  A
C1207      C1212   1.401       .  A
C1208      C1209   1.413       .  A
C1209      C1210   1.411       .  A
C1209      C1216   1.506       .  S
C1210      C1211   1.408       .  A
C1210      H1215   1.083       .  S
C1211      C1212   1.411       .  A
C1213      H1217   1.111       .  S
C1213      H1218   1.108       .  S
C1213      H1219   1.111       .  S
C1216      H1220   1.111       .  S
C1216      H1221   1.109       .  S
C1216      H1222   1.111       .  S
C1223      C1224   1.407       .  A
C1223      C1228   1.407       .  A
C1223      H1230   1.084       .  S
C1225      C1226   1.402       .  A
C1225      C1232   1.509       .  S
C1226      C1227   1.402       .  A
C1226      H1231   1.084       .  S
C1228      C1229   1.506       .  S
C1229      H1233   1.111       .  S
C1229      H1234   1.109       .  S
C1229      H1235   1.110       .  S
C1232      H1236   1.110       .  S
C1232      H1237   1.108       .  S
C1232      H1238   1.111       .  S
C1239      C1240   1.401       .  A
C1239      C1244   1.406       .  A
C1239      H1246   1.084       .  S
C1241      C1242   1.402       .  A
C1241      C1248   1.507       .  S
C1242      C1243   1.407       .  A
C1242      H1247   1.084       .  S
C1244      C1245   1.503       .  S
C1245      H1249   1.111       .  S
C1245      H1250   1.110       .  S
C1245      H1251   1.110       .  S
C1248      H1252   1.110       .  S
C1248      H1253   1.111       .  S
C1248      H1254   1.111       .  S
C1255      C1256   1.404       .  A
C1256      C1257   1.414       .  A
C1257      C1258   1.406       .  A
C1257      C1264   1.507       .  S
C1258      C1259   1.403       .  A
C1258      H1263   1.084       .  S
C1260      C1261   1.508       .  S
C1261      H1265   1.111       .  S
C1261      H1266   1.110       .  S
C1261      H1267   1.109       .  S
C1264      H1268   1.108       .  S
C1264      H1269   1.110       .  S
C1264      H1270   1.111       .  S
C1271      C1272   1.408       .  A
C1271      C1276   1.412       .  A
C1271      H1278   1.084       .  S
C1272      C1273   1.413       .  A
C1273      C1274   1.395       .  A
C1273      C1280   1.511       .  S
C1274      C1275   1.404       .  A
C1274      H1279   1.084       .  S
C1275      C1276   1.413       .  A
C1276      C1277   1.505       .  S
C1277      H1281   1.111       .  S
C1277      H1732   1.108       .  S
C1277      H1283   1.110       .  S
C1280      H1284   1.107       .  S
C1280      H1285   1.110       .  S
C1280      H1286   1.111       .  S
H1282      C1727   1.106       .  S
C1287      C1288   1.411       .  A
C1287      C1292   1.400       .  A
C1287      H1294   1.084       .  S
C1288      C1289   1.418       .  A
C1289      C1290   1.407       .  A
C1289      C1296   1.505       .  S
C1290      C1291   1.402       .  A
C1290      H1295   1.084       .  S
C1291      C1292   1.406       .  A
C1292      C1293   1.508       .  S
C1293      H1297   1.111       .  S
C1293      H1298   1.110       .  S
C1293      H1299   1.110       .  S
C1296      H1300   1.108       .  S
C1296      H1301   1.110       .  S
C1296      H1302   1.111       .  S
C1303      C1304   1.407       .  A
C1303      C1308   1.402       .  A
C1303      H1310   1.084       .  S
C1304      C1305   1.421       .  A
C1305      C1306   1.406       .  A
C1305      C1312   1.508       .  S
C1306      C1307   1.401       .  A
C1306      H1311   1.084       .  S
C1307      C1308   1.409       .  A
C1307      C1580   1.478       .  S
C1308      C1309   1.507       .  S
C1309      H1313   1.111       .  S
C1309      H1314   1.110       .  S
C1309      H1765   1.111       .  S
C1312      H1316   1.110       .  S
C1312      H1767   1.110       .  S
C1312      H1318   1.111       .  S
H1315      C1759   1.111       .  S
H1317      C1762   1.110       .  S
C1319      C1320   1.397       .  A
C1319      C1324   1.396       .  A
C1319      H1326   1.067       .  S
C1320      C1771   1.424       .  A
C1321      C1770   1.420   1_545  A
C1321      C1322   1.409       .  A
C1321      C1328   1.506       .  S
C1322      C1773   1.404   1_545  A
C1322      H1327   1.085       .  S
C1323      C1772   1.403       .  A
C1323      C1324   1.411       .  A
C1323      C1578   1.481       .  S
C1324      C1325   1.509       .  S
C1325      H1329   1.110       .  S
C1325      H1330   1.110       .  S
C1325      H1331   1.109       .  S
C1328      H1332   1.104       .  S
C1328      H1333   1.110       .  S
C1328      H1334   1.109       .  S
C1335      C1336   1.403       .  A
C1335      C1340   1.405       .  A
C1335      H1342   1.084       .  S
C1336      C1787   1.411       .  A
C1337      C1786   1.412   1_545  A
C1337      C1788   1.402       .  A
C1337      C1344   1.507       .  S
C1338      C1787   1.404       .  A
C1338      C1339   1.403       .  A
C1338      H1793   1.084       .  S
C1339      C1340   1.413       .  A
C1340      C1341   1.507       .  S
C1341      H1345   1.111       .  S
C1341      H1346   1.109       .  S
C1341      H1347   1.111       .  S
H1343      C1788   1.084       .  S
C1344      H1348   1.110       .  S
C1344      H1349   1.109       .  S
C1344      H1350   1.111       .  S
C1351      C1352   1.406       .  A
C1351      C1356   1.406       .  A
C1351      C1561   1.476       .  S
C1352      H1357   1.084       .  S
C1353      C1354   1.400       .  A
C1354      C1355   1.396       .  A
C1354      H1358   1.085       .  S
C1356      H1359   1.084       .  S
C1360      C1361   1.405       .  A
C1360      C1365   1.410       .  A
C1360      C1564   1.479       .  S
C1361      C1362   1.397       .  A
C1361      H1366   1.084       .  S
C1362      C1363   1.397       .  A
C1362      C1516   1.474       .  S
C1363      C1364   1.401       .  A
C1363      H1367   1.085       .  S
C1364      C1365   1.404       .  A
C1364      C1497   1.481       .  S
C1365      H1368   1.083       .  S
C1369      C1484   1.482       .  S
C1370      C1371   1.398       .  A
C1371      C1372   1.401       .  A
C1371      C1465   1.477       .  S
C1372      C1373   1.406       .  A
C1372      H1376   1.084       .  S
C1373      C1374   1.409       .  A
C1373      C1449   1.495       .  S
C1378      C1379   1.413       .  A
C1378      C1383   1.408       .  A
C1378      C1481   1.487       .  S
C1379      C1380   1.407       .  A
C1379      H1384   1.083       .  S
C1380      C1381   1.401       .  A
C1380      C1433   1.487       .  S
C1381      C1382   1.398       .  A
C1381      H1385   1.085       .  S
C1382      C1383   1.398       .  A
C1382      C1417   1.475       .  S
C1383      H1386   1.084       .  S
O1387      C1395   1.290   1_655  A
O1388      C1396   1.265       .  A
O1388     Co1408   1.999       .  S
O1389     Co1409   1.994       .  S
O1390      C1398   1.274       .  A
O1390     Co1635   1.907       .  S
O1391      C1397   1.268       .  A
O1392      C1398   1.294       .  A
O1392     Co1407   2.062       .  S
O1393      C1396   1.260       .  A
O1393     Co1410   1.992       .  S
O1394     Co1634   1.918       .  S
C1395      C1468   1.480   1_455  S
C1396      C1500   1.480       .  S
C1397      C1452   1.481       .  S
C1398      C1513   1.490       .  S
O1399      C1412   1.256       .  A
O1399     Co1407   2.011       .  S
O1400      C1413   1.268       .  A
O1401     Co1634   1.966       .  S
O1402      C1415   1.277       .  A
O1402     Co1410   2.024       .  S
O1403      C1415   1.265       .  A
O1403     Co1408   1.968       .  S
O1404      C1414   1.258       .  A
O1405      C1412   1.245       .  A
O1405     Co1635   1.974       .  S
O1406     Co1409   2.010       .  S
Co1407     O1636   2.215   1_554  S
Co1408     O1411   2.069       .  S
Co1409     O1619   1.918       .  S
Co1409     O1626   1.970       .  S
Co1410     O1615   1.900       .  S
Co1410     O1630   1.974       .  S
Co1410     O1411   1.969       .  S
O1411     Co1632   2.211       .  S
C1412      C1436   1.495       .  S
C1413      C1529   1.488       .  S
C1414      C1545   1.481       .  S
C1415      C1420   1.489       .  S
C1416      C1417   1.399       .  A
C1416      C1421   1.403       .  A
C1416      H1423   1.085   1_655  S
C1417      C1418   1.407       .  A
C1418      C1419   1.404       .  A
C1418      C1425   1.505       .  S
C1419      C1420   1.409       .  A
C1419      H1424   1.083       .  S
C1420      C1421   1.423       .  A
C1421      C1422   1.510   1_655  S
C1422      H1426   1.111       .  S
C1422      H1427   1.110       .  S
C1422      H1428   1.109       .  S
C1425      H1429   1.110       .  S
C1425      H1430   1.110       .  S
C1425      H1431   1.111       .  S
C1432      C1433   1.401       .  A
C1432      C1437   1.402       .  A
C1433      C1434   1.413       .  A
C1434      C1435   1.412       .  A
C1434      C1441   1.505       .  S
C1435      C1436   1.409       .  A
C1435      H1440   1.083       .  S
C1436      C1437   1.412       .  A
C1438      H1442   1.111       .  S
C1438      H1443   1.109       .  S
C1438      H1444   1.110       .  S
C1441      H1445   1.111       .  S
C1441      H1446   1.109       .  S
C1441      H1447   1.111       .  S
C1448      C1449   1.408       .  A
C1448      C1453   1.408       .  A
C1448      H1455   1.084       .  S
C1450      C1451   1.402       .  A
C1450      C1457   1.509       .  S
C1451      C1452   1.402       .  A
C1451      H1456   1.084       .  S
C1453      C1454   1.506       .  S
C1454      H1458   1.111       .  S
C1454      H1459   1.109       .  S
C1454      H1460   1.110       .  S
C1457      H1461   1.111       .  S
C1457      H1462   1.108       .  S
C1457      H1463   1.111       .  S
C1464      C1465   1.402       .  A
C1464      C1469   1.406       .  A
C1464      H1471   1.084       .  S
C1466      C1467   1.402       .  A
C1466      C1473   1.507       .  S
C1467      C1468   1.406       .  A
C1467      H1472   1.084       .  S
C1469      C1470   1.504       .  S
C1470      H1474   1.111       .  S
C1470      H1475   1.110       .  S
C1470      H1476   1.110       .  S
C1473      H1477   1.110       .  S
C1473      H1478   1.111       .  S
C1473      H1479   1.111       .  S
C1480      C1481   1.405       .  A
C1481      C1482   1.415       .  A
C1482      C1483   1.407       .  A
C1482      C1489   1.507       .  S
C1483      C1484   1.404       .  A
C1483      H1488   1.084       .  S
C1485      C1486   1.508       .  S
C1486      H1490   1.111       .  S
C1486      H1491   1.110       .  S
C1486      H1492   1.109       .  S
C1489      H1493   1.108       .  S
C1489      H1494   1.110       .  S
C1489      H1495   1.111       .  S
C1496      C1497   1.407   1_545  A
C1496      C1501   1.412   1_545  A
C1496      H1503   1.084       .  S
C1497      C1498   1.411       .  A
C1498      C1499   1.396       .  A
C1498      C1505   1.510       .  S
C1499      C1500   1.403       .  A
C1499      H1504   1.084       .  S
C1500      C1501   1.413       .  A
C1501      C1502   1.505   1_565  S
C1502      H1506   1.111       .  S
C1502      H1508   1.110       .  S
C1505      H1509   1.108       .  S
C1505      H1510   1.110       .  S
C1505      H1511   1.111       .  S
C1512      C1513   1.411       .  A
C1512      C1517   1.400       .  A
C1512      H1519   1.084   1_565  S
C1513      C1514   1.418       .  A
C1514      C1515   1.407       .  A
C1514      C1521   1.505       .  S
C1515      C1516   1.401       .  A
C1515      H1520   1.084       .  S
C1516      C1517   1.406       .  A
C1517      C1518   1.508   1_565  S
C1518      H1522   1.110       .  S
C1518      H1523   1.110       .  S
C1518      H1524   1.110       .  S
C1521      H1525   1.108       .  S
C1521      H1526   1.110       .  S
C1521      H1527   1.111       .  S
C1528      C1529   1.407       .  A
C1528      C1533   1.401       .  A
C1528      H1535   1.084       .  S
C1529      C1530   1.421   1_565  A
C1530      C1531   1.406       .  A
C1530      C1537   1.508       .  S
C1531      C1532   1.401   1_545  A
C1531      H1536   1.084       .  S
C1532      C1533   1.409       .  A
C1533      C1534   1.508       .  S
C1534      H1538   1.111       .  S
C1534      H1539   1.110       .  S
C1537      H1541   1.110       .  S
C1537      H1543   1.111       .  S
C1544      C1545   1.394       .  A
C1544      C1549   1.393       .  A
C1544      H1551   1.068       .  S
C1546      C1547   1.410       .  A
C1546      C1553   1.508       .  S
C1547      H1552   1.085       .  S
C1548      C1549   1.410       .  A
C1549      C1550   1.509       .  S
C1550      H1554   1.110       .  S
C1550      H1555   1.111       .  S
C1550      H1556   1.108       .  S
C1553      H1557   1.102       .  S
C1553      H1558   1.110       .  S
C1553      H1559   1.110       .  S
C1560      C1561   1.403       .  A
C1560      C1565   1.404       .  A
C1560      H1567   1.084       .  S
C1562      C1569   1.506       .  S
C1563      C1564   1.403   1_545  A
C1564      C1565   1.414       .  A
C1565      C1566   1.507       .  S
C1566      H1570   1.111       .  S
C1566      H1571   1.108       .  S
C1566      H1572   1.111       .  S
C1569      H1573   1.110       .  S
C1569      H1574   1.110       .  S
C1569      H1575   1.111       .  S
C1576      C1577   1.407       .  A
C1576      C1581   1.406       .  A
C1576      C1786   1.478       .  S
C1577      H1582   1.084       .  S
C1578      C1579   1.402       .  A
C1579      C1580   1.397       .  A
C1579      H1583   1.085       .  S
C1581      H1584   1.084       .  S
C1585      C1586   1.405       .  A
C1585      C1590   1.409       .  A
C1585      C1789   1.480       .  S
C1586      C1587   1.397       .  A
C1586      H1591   1.084       .  S
C1587      C1588   1.398       .  A
C1587      C1741   1.475       .  S
C1588      C1589   1.402       .  A
C1588      H1592   1.085       .  S
C1589      C1590   1.404       .  A
C1589      C1722   1.482       .  S
C1590      H1593   1.083       .  S
C1594      C1709   1.483       .  S
C1595      C1596   1.399       .  A
C1596      C1597   1.400       .  A
C1596      C1690   1.478       .  S
C1597      C1598   1.406       .  A
C1597      H1601   1.084       .  S
C1598      C1599   1.409       .  A
C1598      C1674   1.494       .  S
C1603      C1604   1.412       .  A
C1603      C1608   1.407       .  A
C1603      C1706   1.486       .  S
C1604      C1605   1.406       .  A
C1604      H1609   1.083       .  S
C1605      C1606   1.401       .  A
C1605      C1658   1.486       .  S
C1606      C1607   1.398       .  A
C1606      H1610   1.085       .  S
C1607      C1608   1.398       .  A
C1607      C1642   1.474       .  S
C1608      H1611   1.084       .  S
O1612      C1620   1.289   1_655  A
O1613      C1621   1.265       .  A
O1613     Co1633   1.997       .  S
O1614     Co1634   1.993   1_556  S
O1615      C1623   1.273       .  A
O1616      C1622   1.268       .  A
O1617      C1623   1.294       .  A
O1617     Co1632   2.066       .  S
O1618      C1621   1.261       .  A
O1618     Co1635   1.996   1_556  S
C1620      C1693   1.480   1_455  S
C1621      C1725   1.480       .  S
C1622      C1677   1.481       .  S
C1623      C1738   1.487       .  S
O1624      C1637   1.255       .  A
O1624     Co1632   2.003       .  S
O1625      C1638   1.267       .  A
O1627      C1640   1.277       .  A
O1627     Co1635   2.020   1_556  S
O1628      C1640   1.265       .  A
O1628     Co1633   1.969       .  S
O1629      C1639   1.253       .  A
O1630      C1637   1.247       .  A
O1631     Co1634   2.014   1_556  S
Co1633     O1636   2.068       .  S
Co1635     O1636   1.967   1_554  S
C1637      C1661   1.493       .  S
C1638      C1754   1.489       .  S
C1639      C1770   1.480       .  S
C1640      C1645   1.488       .  S
C1641      C1642   1.399       .  A
C1641      C1646   1.403       .  A
C1641      H1648   1.085   1_655  S
C1642      C1643   1.407       .  A
C1643      C1644   1.404       .  A
C1643      C1650   1.505       .  S
C1644      C1645   1.409       .  A
C1644      H1649   1.083       .  S
C1645      C1646   1.422       .  A
C1646      C1647   1.510   1_655  S
C1647      H1651   1.111       .  S
C1647      H1652   1.110       .  S
C1647      H1653   1.109       .  S
C1650      H1654   1.110       .  S
C1650      H1655   1.110       .  S
C1650      H1656   1.111       .  S
C1657      C1658   1.401       .  A
C1657      C1662   1.402   1_655  A
C1658      C1659   1.412       .  A
C1659      C1660   1.410       .  A
C1659      C1666   1.506       .  S
C1660      C1661   1.409       .  A
C1660      H1665   1.083       .  S
C1661      C1662   1.413   1_655  A
C1663      H1667   1.111       .  S
C1663      H1668   1.108       .  S
C1663      H1669   1.110       .  S
C1666      H1670   1.111       .  S
C1666      H1671   1.109       .  S
C1666      H1672   1.111       .  S
C1673      C1674   1.408       .  A
C1673      C1678   1.408       .  A
C1673      H1680   1.084       .  S
C1675      C1676   1.402       .  A
C1675      C1682   1.509       .  S
C1676      C1677   1.402       .  A
C1676      H1681   1.084       .  S
C1678      C1679   1.506       .  S
C1679      H1683   1.111       .  S
C1679      H1684   1.109       .  S
C1679      H1685   1.110       .  S
C1682      H1686   1.110       .  S
C1682      H1687   1.108       .  S
C1682      H1688   1.111       .  S
C1689      C1690   1.402       .  A
C1689      C1694   1.405       .  A
C1689      H1696   1.084       .  S
C1691      C1692   1.403       .  A
C1691      C1698   1.507       .  S
C1692      C1693   1.406       .  A
C1692      H1697   1.084       .  S
C1694      C1695   1.503       .  S
C1695      H1699   1.111       .  S
C1695      H1700   1.110       .  S
C1695      H1701   1.110       .  S
C1698      H1702   1.110       .  S
C1698      H1703   1.111       .  S
C1698      H1704   1.111       .  S
C1705      C1706   1.405       .  A
C1706      C1707   1.415       .  A
C1707      C1708   1.407       .  A
C1707      C1714   1.507       .  S
C1708      C1709   1.404       .  A
C1708      H1713   1.084       .  S
C1710      C1711   1.508       .  S
C1711      H1715   1.111       .  S
C1711      H1716   1.110       .  S
C1711      H1717   1.109       .  S
C1714      H1718   1.108       .  S
C1714      H1719   1.110       .  S
C1714      H1720   1.111       .  S
C1721      C1722   1.407       .  A
C1721      C1726   1.412       .  A
C1721      H1728   1.084   1_565  S
C1722      C1723   1.412       .  A
C1723      C1724   1.396       .  A
C1723      C1730   1.510       .  S
C1724      C1725   1.403       .  A
C1724      H1729   1.084       .  S
C1725      C1726   1.413       .  A
C1726      C1727   1.505   1_565  S
C1727      H1731   1.111       .  S
C1727      H1733   1.110       .  S
C1730      H1734   1.108       .  S
C1730      H1735   1.110       .  S
C1730      H1736   1.111       .  S
C1737      C1738   1.410       .  A
C1737      C1742   1.401   1_565  A
C1737      H1744   1.084   1_565  S
C1738      C1739   1.417       .  A
C1739      C1740   1.407       .  A
C1739      C1746   1.505       .  S
C1740      C1741   1.402       .  A
C1740      H1745   1.084       .  S
C1741      C1742   1.407   1_565  A
C1742      C1743   1.508       .  S
C1743      H1747   1.110       .  S
C1743      H1748   1.110       .  S
C1743      H1749   1.110       .  S
C1746      H1750   1.108       .  S
C1746      H1751   1.110       .  S
C1746      H1752   1.111       .  S
C1753      C1754   1.407       .  A
C1753      C1758   1.402       .  A
C1753      H1760   1.084       .  S
C1754      C1755   1.422   1_565  A
C1755      C1756   1.407       .  A
C1755      C1762   1.508       .  S
C1756      C1757   1.401   1_545  A
C1756      H1761   1.084       .  S
C1757      C1758   1.409       .  A
C1758      C1759   1.508       .  S
C1759      H1763   1.111       .  S
C1759      H1764   1.110       .  S
C1762      H1766   1.110       .  S
C1762      H1768   1.111       .  S
C1769      C1770   1.395       .  A
C1769      C1774   1.394       .  A
C1769      H1776   1.072       .  S
C1771      C1772   1.411       .  A
C1771      C1778   1.507       .  S
C1772      H1777   1.084       .  S
C1773      C1774   1.410       .  A
C1774      C1775   1.509       .  S
C1775      H1779   1.110       .  S
C1775      H1780   1.111       .  S
C1775      H1781   1.108       .  S
C1778      H1782   1.103       .  S
C1778      H1783   1.110       .  S
C1778      H1784   1.109       .  S
C1785      C1786   1.403       .  A
C1785      C1790   1.405       .  A
C1785      H1792   1.084       .  S
C1787      C1794   1.506       .  S
C1788      C1789   1.403   1_545  A
C1789      C1790   1.414       .  A
C1790      C1791   1.507       .  S
C1791      H1795   1.111       .  S
C1791      H1796   1.108       .  S
C1791      H1797   1.111       .  S
C1794      H1798   1.110       .  S
C1794      H1799   1.110       .  S
C1794      H1800   1.111       .  S
