geometry optimzed in LAMMPS
_audit_creation_date              2020-11-30 
_audit_creation_method            'lammps2cif' 
_symmetry_space_group_name_H-M    'P1' 
_symmetry_Int_Tables_number       1 
_symmetry_cell_setting            triclinic 
loop_ 
_symmetry_equiv_pos_as_xyz 
  x,y,z 
_cell_length_a                    39.910737174934944 
_cell_length_b                    40.26986222032041 
_cell_length_c                    40.04847964633745 
_cell_angle_alpha                 89.93071804242022 
_cell_angle_beta                  89.77988412461545 
_cell_angle_gamma                 89.78672457959536 
loop_ 
_atom_site_label 
_atom_site_type_symbol 
_atom_site_fract_x 
_atom_site_fract_y 
_atom_site_fract_z 
_atom_site_charge 
N1          N  0.27987276  0.00441820  0.94028444    -0.27120
N2          N  0.27719487  0.03417800  0.95399181    -0.34980
C3          C  0.29546913  0.05542998  0.93497236     0.01220
C4          C  0.30970872  0.03787189  0.90817126     0.07240
C5          C  0.29896802  0.00575041  0.91282731    -0.05860
H6          H  0.29903414  0.08140222  0.94075564     0.07910
H7          H  0.30648539  0.98403341  0.89878491     0.09110
Cu8        Cu  0.24984231  0.04161111  0.99949420     0.44170
Cu9        Cu  0.26473590  0.96047158  0.96040147     0.41990
Cu10       Cu  0.23878072  0.96103153  0.04156178     0.43880
N11         N  0.22264556  0.03441792  0.04511260    -0.34510
N12         N  0.22117793  0.00499589  0.05974898    -0.28760
C13         C  0.20180314  0.00642440  0.08699961    -0.04860
C14         C  0.18965163  0.03826747  0.09060554     0.07350
C15         C  0.20335519  0.05554457  0.06336361     0.01150
H16         H  0.19525532  0.98484606  0.10168241     0.08800
H17         H  0.19877883  0.08120512  0.05675894     0.07880
N18         N  0.24800360  0.91746100  0.01739477    -0.35960
N19         N  0.25803928  0.91729779  0.98604881    -0.28140
C20         C  0.26177202  0.88588093  0.97571264    -0.03380
C21         C  0.25326471  0.86555993  0.00205066     0.05230
C22         C  0.24435605  0.88612682  0.02807866     0.03320
H23         H  0.26930592  0.87847650  0.95082874     0.08430
H24         H  0.23551948  0.87896001  0.05260999     0.07260
N25         N  0.41137515  0.85775408  0.72162872    -0.27120
N26         N  0.38188906  0.87284419  0.72197129    -0.34980
C27         C  0.36104076  0.85507057  0.70221688     0.01220
C28         C  0.37849836  0.82762960  0.68926045     0.07240
C29         C  0.41022989  0.83060327  0.70241462    -0.05860
H30         H  0.33546392  0.86214656  0.69681265     0.07910
H31         H  0.43195530  0.81551752  0.69667781     0.09110
Cu32       Cu  0.37439277  0.91861531  0.74809904     0.44170
Cu33       Cu  0.45507256  0.87610890  0.74044502     0.41990
Cu34       Cu  0.45470191  0.96085297  0.75481272     0.43880
N35         N  0.38161642  0.96456975  0.77380467    -0.34510
N36         N  0.41094056  0.97972076  0.77332657    -0.28760
C37         C  0.40999620  0.00678960  0.79263827    -0.04860
C38         C  0.37856872  0.00967686  0.80678414     0.07350
C39         C  0.36104425  0.98226542  0.79421544     0.01150
H40         H  0.43183068  0.02162624  0.79799727     0.08800
H41         H  0.33573984  0.97500666  0.80050835     0.07880
N42         N  0.49828418  0.93433664  0.75213538    -0.35960
N43         N  0.49842130  0.90196372  0.74747142    -0.28140
C44         C  0.53014890  0.89098504  0.74670550    -0.03380
C45         C  0.55075625  0.91788832  0.75194543     0.05230
C46         C  0.52987033  0.94507106  0.75509356     0.03320
H47         H  0.53762517  0.86552097  0.74223113     0.08430
H48         H  0.53698564  0.97075493  0.75830214     0.07260
N49         N  0.77748462  0.33313557  0.05873066    -0.27120
N50         N  0.77602526  0.30363892  0.04433466    -0.34980
C51         C  0.79526347  0.28257139  0.06257951     0.01220
C52         C  0.80895200  0.29994607  0.08958721     0.07240
C53         C  0.79683764  0.33180277  0.08587230    -0.05860
H54         H  0.79981080  0.25688061  0.05611801     0.07910
H55         H  0.80340784  0.35341743  0.10039172     0.09110
Cu56       Cu  0.74902235  0.29617895  0.99898107     0.44170
Cu57       Cu  0.75986504  0.37693634  0.04007971     0.41990
Cu58       Cu  0.73607033  0.37679078  0.95812143     0.43880
N59         N  0.72202095  0.30322989  0.95351386    -0.34510
N60         N  0.72004514  0.33272138  0.93907915    -0.28760
C61         C  0.70079532  0.33120138  0.91189110    -0.04860
C62         C  0.68926017  0.29922506  0.90819179     0.07350
C63         C  0.70320351  0.28197021  0.93525690     0.01150
H64         H  0.69373356  0.35278111  0.89742386     0.08800
H65         H  0.69904605  0.25624398  0.94177935     0.07880
N66         N  0.74177183  0.42015730  0.98364580    -0.35960
N67         N  0.75083810  0.42021863  0.01521270    -0.28140
C68         C  0.75347212  0.45162564  0.02586114    -0.03380
C69         C  0.74481028  0.47208157  0.99964150     0.05230
C70         C  0.73765360  0.45150434  0.97315185     0.03320
H71         H  0.76127791  0.45895320  0.05061464     0.08430
H72         H  0.73078873  0.45868996  0.94804846     0.07260
N73         N  0.71923944  0.50463316  0.55676105    -0.27120
N74         N  0.72100558  0.53423720  0.54254561    -0.34980
C75         C  0.70193843  0.55529997  0.56108910     0.01220
C76         C  0.68810339  0.53777014  0.58808077     0.07240
C77         C  0.69991342  0.50586883  0.58403537    -0.05860
H78         H  0.69759990  0.58109288  0.55485266     0.07910
H79         H  0.69312746  0.48415304  0.59840542     0.09110
Cu80       Cu  0.74827192  0.54174437  0.49708667     0.44170
Cu81       Cu  0.73633000  0.46077367  0.53800584     0.41990
Cu82       Cu  0.76268143  0.46079295  0.45710139     0.43880
N83         N  0.77560347  0.53455666  0.45158801    -0.34510
N84         N  0.77812939  0.50492567  0.43757127    -0.28760
C85         C  0.79726764  0.50645822  0.41015840    -0.04860
C86         C  0.80816911  0.53858131  0.40585041     0.07350
C87         C  0.79399698  0.55591964  0.43281891     0.01150
H88         H  0.80465869  0.48484749  0.39588902     0.08800
H89         H  0.79766978  0.58181448  0.43887436     0.07880
N90         N  0.75603931  0.41739839  0.48243171    -0.35960
N91         N  0.74574094  0.41739103  0.51368351    -0.28140
C92         C  0.74251484  0.38601925  0.52434795    -0.03380
C93         C  0.75208809  0.36553956  0.49846142     0.05230
C94         C  0.76041075  0.38603672  0.47215373     0.03320
H95         H  0.73376505  0.37874680  0.54888086     0.08430
H96         H  0.76827987  0.37878547  0.44732601     0.07260
C97         C  0.88257569  0.58294741  0.36607600     0.03300
C98         C  0.88841918  0.56277352  0.33813500    -0.12850
C99         C  0.86797965  0.53500840  0.33153169     0.00800
C100        C  0.84031769  0.52893959  0.35245963    -0.11380
C101        C  0.83373630  0.54906368  0.38064239     0.03290
C102        C  0.85460594  0.57634655  0.38670967    -0.10800
H103        H  0.91021867  0.56761286  0.32280255     0.08880
H104        H  0.82490906  0.50745611  0.34769301     0.06410
H105        H  0.85021609  0.59132141  0.40872142     0.06260
N106        N  0.94253527  0.63225235  0.41210615    -0.27120
N107        N  0.95407841  0.63907872  0.38187681    -0.34980
C108        C  0.93384033  0.62347344  0.35972403     0.01220
C109        C  0.90841355  0.60699066  0.37735127     0.07240
C110        C  0.91518985  0.61339025  0.41030425    -0.05860
H111        H  0.93763305  0.62352582  0.33296670     0.07910
H112        H  0.90242907  0.60335427  0.43192743     0.09110
Cu113      Cu  0.99766024  0.66920893  0.37495395     0.44170
Cu114      Cu  0.96347198  0.64379794  0.45663434     0.41990
Cu115      Cu  0.02903611  0.69534469  0.45796031     0.43880
N116        N  0.04096766  0.69932499  0.38316079    -0.34510
N117        N  0.05144849  0.70647654  0.41362271    -0.28760
C118        C  0.07895846  0.72520160  0.41223192    -0.04860
C119        C  0.08693973  0.73112433  0.37935809     0.07350
C120        C  0.06205180  0.71454753  0.36133487     0.01150
H121        H  0.09106725  0.73543293  0.43402109     0.08800
H122        H  0.05921387  0.71413187  0.33448815     0.07880
N123        N  0.00736815  0.68025864  0.50141250    -0.35960
N124        N  0.98270913  0.65881431  0.50083781    -0.28140
C125        C  0.97394788  0.65078843  0.53210623    -0.03380
C126        C  0.99391476  0.66890708  0.55352977     0.05230
C127        C  0.01504273  0.68717335  0.53312782     0.03320
H128        H  0.95540314  0.63245927  0.53820924     0.08430
H129        H  0.03470590  0.70392068  0.54069336     0.07260
N130        N  0.55844923  0.19850907  0.91354911    -0.27120
N131        N  0.54470456  0.19584843  0.88365436    -0.34980
C132        C  0.56322639  0.21453915  0.86226974     0.01220
C133        C  0.58974659  0.22905589  0.87983175     0.07240
C134        C  0.58544094  0.21802733  0.91212225    -0.05860
H135        H  0.55733087  0.21808531  0.83616868     0.07910
H136        H  0.59946146  0.22543253  0.93391025     0.09110
Cu137      Cu  0.49989958  0.16780587  0.87578012     0.44170
Cu138      Cu  0.53935545  0.18228874  0.95801486     0.41990
Cu139      Cu  0.45979210  0.15273503  0.95675273     0.43880
N140        N  0.45481484  0.13986447  0.88261542    -0.34510
N141        N  0.44085118  0.13699268  0.91246403    -0.28760
C142        C  0.41368436  0.11780204  0.91096753    -0.04860
C143        C  0.40941363  0.10719459  0.87860577     0.07350
C144        C  0.43621356  0.12160169  0.86108531     0.01150
H145        H  0.39950811  0.11033942  0.93275140     0.08800
H146        H  0.44220544  0.11827377  0.83494121     0.07880
N147        N  0.48314633  0.16196415  0.00080197    -0.35960
N148        N  0.51389702  0.17350062  0.00141597    -0.28140
C149        C  0.52334510  0.17760787  0.03319720    -0.03380
C150        C  0.49697542  0.16800915  0.05351546     0.05230
C151        C  0.47201964  0.15770162  0.03209358     0.03320
H152        H  0.54752294  0.18685927  0.04090089     0.08430
H153        H  0.44813862  0.14686440  0.03837176     0.07260
C154        C  0.33528261  0.04815503  0.88288191     0.03300
C155        C  0.35617539  0.07544546  0.88876901    -0.12850
C156        C  0.38418073  0.08195816  0.86811809     0.00800
C157        C  0.38987111  0.06159015  0.84019645    -0.11380
C158        C  0.36911209  0.03399420  0.83350494     0.03290
C159        C  0.34163482  0.02798800  0.85469572    -0.10800
H160        H  0.35149347  0.09061987  0.91054831     0.08880
H161        H  0.41146192  0.06647881  0.82462848     0.06410
H162        H  0.32597686  0.00667258  0.84997887     0.06260
N163        N  0.58544151  0.35833885  0.77743194    -0.27120
N164        N  0.61518897  0.37257753  0.77547331    -0.34980
C165        C  0.63651937  0.35430922  0.79447888     0.01220
C166        C  0.61901020  0.32747869  0.80848854     0.07240
C167        C  0.58684023  0.33132905  0.79679851    -0.05860
H168        H  0.66245848  0.36066703  0.79873288     0.07910
H169        H  0.56499759  0.31710871  0.80384289     0.09110
Cu170      Cu  0.62226526  0.41782250  0.74809810     0.44170
Cu171      Cu  0.54106359  0.37738175  0.76138374     0.41990
Cu172      Cu  0.54057972  0.45830274  0.73617839     0.43880
N173        N  0.61455191  0.46294099  0.72064655    -0.34510
N174        N  0.58462133  0.47702175  0.71887434    -0.28760
C175        C  0.58571013  0.50406579  0.69953875    -0.04860
C176        C  0.61786291  0.50812132  0.68771066     0.07350
C177        C  0.63568635  0.48135556  0.70155705     0.01150
H178        H  0.56373361  0.51832148  0.69281062     0.08800
H179        H  0.66174834  0.47521875  0.69724610     0.07880
N180        N  0.49707869  0.43389948  0.74578678    -0.35960
N181        N  0.49728267  0.40269678  0.75558491    -0.28140
C182        C  0.46573853  0.39241449  0.76020359    -0.03380
C183        C  0.44492551  0.41866605  0.75254514     0.05230
C184        C  0.46537002  0.44452798  0.74311466     0.03320
H185        H  0.45857574  0.36762646  0.76775236     0.08430
H186        H  0.45784886  0.46899613  0.73476971     0.07260
N187        N  0.91228221  0.47902080  0.27501241    -0.27120
N188        N  0.88254439  0.46470889  0.27366436    -0.34980
C189        C  0.86111911  0.48315914  0.29242446     0.01220
C190        C  0.87846613  0.51024987  0.30573652     0.07240
C191        C  0.91071649  0.50637410  0.29386214    -0.05860
H192        H  0.83524096  0.47668270  0.29705278     0.07910
H193        H  0.93248284  0.52080711  0.30049920     0.09110
Cu194      Cu  0.87516594  0.41903177  0.24787878     0.44170
Cu195      Cu  0.95678495  0.45942228  0.25885206     0.41990
Cu196      Cu  0.95558590  0.37597567  0.24057634     0.43880
N197        N  0.88234455  0.37315500  0.22224646    -0.34510
N198        N  0.91171113  0.35786468  0.22213715    -0.28760
C199        C  0.91049387  0.33071269  0.20299800    -0.04860
C200        C  0.87883675  0.32796891  0.18962623     0.07350
C201        C  0.86147827  0.35552146  0.20241799     0.01150
H202        H  0.93221852  0.31561749  0.19732764     0.08800
H203        H  0.83604990  0.36288248  0.19672033     0.07880
N204        N  0.99960074  0.40064261  0.24742250    -0.35960
N205        N  0.00014021  0.43266708  0.25387132    -0.28140
C206        C  0.03201817  0.44270523  0.25619338    -0.03380
C207        C  0.05249011  0.41543318  0.25081589     0.05230
C208        C  0.03107684  0.38922213  0.24482507     0.03320
H209        H  0.03969170  0.46794110  0.26122537     0.08430
H210        H  0.03754664  0.36416315  0.23766745     0.07260
C211        C  0.83488044  0.28968886  0.11440352     0.03300
C212        C  0.84140980  0.30984995  0.14247317    -0.12850
C213        C  0.86896309  0.30359992  0.16332253     0.00800
C214        C  0.88948230  0.27570890  0.15658781    -0.11380
C215        C  0.88364261  0.25537600  0.12878708     0.03290
C216        C  0.85571924  0.26219656  0.10831260    -0.10800
H217        H  0.82587231  0.33133251  0.14738332     0.08880
H218        H  0.91107754  0.27060687  0.17197738     0.06410
H219        H  0.85104932  0.24700732  0.08659346     0.06260
N220        N  0.94100094  0.20049394  0.08431745    -0.27120
N221        N  0.95423673  0.19706171  0.11437227    -0.34980
C222        C  0.93515346  0.21508195  0.13589453     0.01220
C223        C  0.90879424  0.22992614  0.11822048     0.07240
C224        C  0.91375709  0.21982546  0.08575327    -0.05860
H225        H  0.94058656  0.21799943  0.16216624     0.07910
H226        H  0.90006229  0.22784402  0.06391817     0.09110
Cu227      Cu  0.99911391  0.16903507  0.12230185     0.44170
Cu228      Cu  0.96103846  0.18569349  0.03983890     0.41990
Cu229      Cu  0.04015908  0.15502387  0.04136584     0.43880
N230        N  0.04437797  0.14128619  0.11545044    -0.34510
N231        N  0.05868304  0.13879853  0.08572301    -0.28760
C232        C  0.08589642  0.11948738  0.08730015    -0.04860
C233        C  0.08979467  0.10840640  0.11957596     0.07350
C234        C  0.06277611  0.12266725  0.13696851     0.01150
H235        H  0.10031144  0.11221892  0.06558537     0.08800
H236        H  0.05644549  0.11894805  0.16298476     0.07880
N237        N  0.01716842  0.16482597  0.99720950    -0.35960
N238        N  0.98660181  0.17702087  0.99654655    -0.28140
C239        C  0.97711683  0.18109359  0.96477176    -0.03380
C240        C  0.00324048  0.17069065  0.94446321     0.05230
C241        C  0.02812404  0.16003016  0.96593496     0.03320
H242        H  0.95296645  0.19060755  0.95707588     0.08430
H243        H  0.05171023  0.14841632  0.95975075     0.07260
C244        C  0.11475584  0.08275582  0.13004029     0.03300
C245        C  0.14292545  0.07608704  0.10961944    -0.12850
C246        C  0.16363537  0.04849540  0.11554735     0.00800
C247        C  0.15685540  0.02817607  0.14354766    -0.11380
C248        C  0.12909457  0.03426689  0.16435683     0.03290
C249        C  0.10859721  0.06217187  0.15768821    -0.10800
H250        H  0.14792582  0.09145940  0.08804343     0.08880
H251        H  0.17232516  0.00664985  0.14841730     0.06410
H252        H  0.08683726  0.06711837  0.17305312     0.06260
N253        N  0.08583498  0.97936511  0.22264567    -0.27120
N254        N  0.11541681  0.96448407  0.22326822    -0.34980
C255        C  0.13645078  0.98239187  0.20364841     0.01220
C256        C  0.11898097  0.00968467  0.19050112     0.07240
C257        C  0.08708265  0.00649734  0.20340131    -0.05860
H258        H  0.16212898  0.97544187  0.19839422     0.07910
H259        H  0.06529113  0.02132896  0.19738845     0.09110
Cu260      Cu  0.12285874  0.91880006  0.24942246     0.44170
Cu261      Cu  0.04182328  0.96096738  0.24082303     0.41990
Cu262      Cu  0.04189242  0.87746551  0.25894006     0.43880
N263        N  0.11560221  0.87296529  0.27531287    -0.34510
N264        N  0.08604394  0.85825253  0.27591871    -0.28760
C265        C  0.08726820  0.83095442  0.29491016    -0.04860
C266        C  0.11910900  0.82747818  0.30770194     0.07350
C267        C  0.13658591  0.85479192  0.29474957     0.01150
H268        H  0.06542924  0.81632920  0.30104442     0.08800
H269        H  0.16219581  0.86160075  0.30009893     0.07880
N270        N  0.99822342  0.90361896  0.25465196    -0.35960
N271        N  0.99820931  0.93567404  0.24812160    -0.28140
C272        C  0.96652634  0.94658990  0.24608946    -0.03380
C273        C  0.94580660  0.91999804  0.25248278     0.05230
C274        C  0.96655961  0.89304335  0.25765944     0.03320
H275        H  0.95918217  0.97178076  0.24008817     0.08430
H276        H  0.95929713  0.86760505  0.26234552     0.07260
N277        N  0.28443344  0.83383968  0.55421121    -0.27120
N278        N  0.27742199  0.80369894  0.54323947    -0.34980
C279        C  0.29301550  0.78179785  0.56387016     0.01220
C280        C  0.30968868  0.79950166  0.58894153     0.07240
C281        C  0.30337767  0.83223346  0.58156212    -0.05860
H282        H  0.29287487  0.75514698  0.56055595     0.07910
H283        H  0.31360251  0.85380601  0.59388254     0.09110
Cu284      Cu  0.24712062  0.79659660  0.49974059     0.44170
Cu285      Cu  0.27318989  0.87791429  0.53231399     0.41990
Cu286      Cu  0.22151609  0.87899864  0.46651719     0.43880
N287        N  0.21692731  0.80445547  0.45622357    -0.34510
N288        N  0.21001905  0.83464934  0.44501813    -0.28760
C289        C  0.19127576  0.83299595  0.41749716    -0.04860
C290        C  0.18506509  0.80024452  0.41029997     0.07350
C291        C  0.20150101  0.78257331  0.43562896     0.01150
H292        H  0.18126169  0.85453762  0.40476728     0.08800
H293        H  0.20173612  0.75592523  0.43903735     0.07880
N294        N  0.23668725  0.92232635  0.48772445    -0.35960
N295        N  0.25829737  0.92179986  0.51231472    -0.28140
C296        C  0.26618161  0.95291008  0.52088545    -0.03380
C297        C  0.24774651  0.97429391  0.50093586     0.05230
C298        C  0.22944998  0.95387195  0.47999421     0.03320
H299        H  0.28452730  0.95884886  0.53949654     0.08430
H300        H  0.21227274  0.96128396  0.46054101     0.07260
C301        C  0.11330229  0.75487070  0.36833685     0.03300
C302        C  0.14062159  0.76153901  0.38955225    -0.12850
C303        C  0.16141825  0.78898802  0.38395540     0.00800
C304        C  0.15566818  0.80916575  0.35564743    -0.11380
C305        C  0.12889011  0.80281883  0.33389106     0.03290
C306        C  0.10839025  0.77491347  0.34008929    -0.10800
H307        H  0.14428663  0.74677863  0.41186057     0.08880
H308        H  0.17092282  0.83097047  0.35161210     0.06410
H309        H  0.08713601  0.76992249  0.32423376     0.06260
N310        N  0.43575607  0.69360032  0.58719017    -0.27120
N311        N  0.45119190  0.69333334  0.61634245    -0.34980
C312        C  0.43368426  0.71346203  0.63726776     0.01220
C313        C  0.40605272  0.72660204  0.62018663     0.07240
C314        C  0.40863610  0.71312721  0.58862464    -0.05860
H315        H  0.44122618  0.71915638  0.66252036     0.07910
H316        H  0.39359169  0.71908297  0.56703550     0.09110
Cu317      Cu  0.49717316  0.66715218  0.62317660     0.44170
Cu318      Cu  0.45399843  0.67565860  0.54300593     0.41990
Cu319      Cu  0.53858573  0.65865153  0.54205306     0.43880
N320        N  0.54291625  0.64079085  0.61520346    -0.34510
N321        N  0.55759215  0.64012552  0.58555812    -0.28760
C322        C  0.58486210  0.62074966  0.58643524    -0.04860
C323        C  0.58832834  0.60784423  0.61815145     0.07350
C324        C  0.56106393  0.62109657  0.63589939     0.01150
H325        H  0.59959253  0.61470869  0.56455554     0.08800
H326        H  0.55430575  0.61591056  0.66154894     0.07880
N327        N  0.51258524  0.66618432  0.49888433    -0.35960
N328        N  0.48010628  0.67207009  0.49917808    -0.28140
C329        C  0.46922901  0.67540230  0.46771846    -0.03380
C330        C  0.49644830  0.67117086  0.44679027     0.05230
C331        C  0.52348828  0.66495140  0.46722691     0.03320
H332        H  0.44342212  0.67969619  0.46070789     0.08430
H333        H  0.54900901  0.65961078  0.45968871     0.07260
C334        C  0.36836900  0.80287112  0.66335425     0.03300
C335        C  0.34098677  0.80918365  0.64231262    -0.12850
C336        C  0.33397163  0.78838753  0.61486486     0.00800
C337        C  0.35382123  0.76009177  0.60967139    -0.11380
C338        C  0.38183126  0.75329690  0.63005137     0.03290
C339        C  0.38839591  0.77445723  0.65716756    -0.10800
H340        H  0.32607279  0.83131743  0.64630599     0.08880
H341        H  0.34845867  0.74452471  0.58840342     0.06410
H342        H  0.40997592  0.76944883  0.67260831     0.06260
C343        C  0.66219266  0.54782027  0.61313760     0.03300
C344        C  0.65568381  0.52732655  0.64106861    -0.12850
C345        C  0.62791980  0.53306698  0.66190263     0.00800
C346        C  0.60722509  0.56088885  0.65544141    -0.11380
C347        C  0.61318673  0.58176239  0.62792738     0.03290
C348        C  0.64127517  0.57530486  0.60734276    -0.10800
H349        H  0.67129959  0.50586195  0.64580267     0.08880
H350        H  0.58553042  0.56557846  0.67098062     0.06410
H351        H  0.64611819  0.59076810  0.58580365     0.06260
C352        C  0.62921518  0.30286462  0.83456232     0.03300
C353        C  0.65683418  0.30895077  0.85524515    -0.12850
C354        C  0.66341936  0.28885339  0.88342910     0.00800
C355        C  0.64263760  0.26146721  0.88971558    -0.11380
C356        C  0.61467304  0.25469587  0.86931659     0.03290
C357        C  0.60872356  0.27509691  0.84147359    -0.10800
H358        H  0.67228041  0.33037559  0.85018707     0.08880
H359        H  0.64743295  0.24633301  0.91149992     0.06410
H360        H  0.58709641  0.27015694  0.82612092     0.06260
N361        N  0.47015840  0.22776749  0.33519300    -0.27120
N362        N  0.47042385  0.21310401  0.36475184    -0.34980
C363        C  0.45031240  0.23113938  0.38531154     0.01220
C364        C  0.43721279  0.25827583  0.36755430     0.07240
C365        C  0.45067013  0.25486110  0.33598794    -0.05860
H366        H  0.44471364  0.22439467  0.41086522     0.07910
H367        H  0.44491040  0.26952864  0.31411335     0.09110
Cu368      Cu  0.49688264  0.16745204  0.37265693     0.44170
Cu369      Cu  0.48917469  0.20894130  0.29177425     0.41990
Cu370      Cu  0.50561931  0.12486240  0.29250911     0.43880
N371        N  0.52306951  0.12147656  0.36574457    -0.34510
N372        N  0.52332210  0.10628123  0.33649474    -0.28760
C373        C  0.54261283  0.07908534  0.33776731    -0.04860
C374        C  0.55598990  0.07614745  0.36932459     0.07350
C375        C  0.54302614  0.10368901  0.38658175     0.01150
H376        H  0.54849367  0.06413809  0.31611166     0.08800
H377        H  0.54870293  0.11090627  0.41193118     0.07880
N378        N  0.50233720  0.15083383  0.24883319    -0.35960
N379        N  0.49663173  0.18306413  0.24859776    -0.28140
C380        C  0.49554540  0.19385309  0.21696094    -0.03380
C381        C  0.50170130  0.16698778  0.19650542     0.05230
C382        C  0.50573482  0.14000612  0.21736616     0.03320
H383        H  0.49039349  0.21917446  0.20946014     0.08430
H384        H  0.50999163  0.11441685  0.21030237     0.07260
N385        N  0.19194324  0.58329992  0.96168516    -0.27120
N386        N  0.20328480  0.55317784  0.96864858    -0.34980
C387        C  0.18266025  0.53118861  0.95339778     0.01220
C388        C  0.15716353  0.54879089  0.93703497     0.07240
C389        C  0.16432583  0.58156628  0.94308880    -0.05860
H390        H  0.18618312  0.50454539  0.95367124     0.07910
H391        H  0.15155116  0.60308134  0.93304082     0.09110
Cu392      Cu  0.24699641  0.54603034  0.99864834     0.44170
Cu393      Cu  0.21330895  0.62758381  0.97298529     0.41990
Cu394      Cu  0.27919176  0.62830402  0.02459126     0.43880
N395        N  0.29040458  0.55386433  0.02881664    -0.34510
N396        N  0.30120627  0.58406310  0.03593380    -0.28760
C397        C  0.32864591  0.58244124  0.05485274    -0.04860
C398        C  0.33621538  0.54967919  0.06093247     0.07350
C399        C  0.31120250  0.53197890  0.04421995     0.01150
H400        H  0.34097190  0.60399698  0.06510821     0.08800
H401        H  0.30806604  0.50531422  0.04385350     0.07880
N402        N  0.25773431  0.67170761  0.00967418    -0.35960
N403        N  0.23298467  0.67143269  0.98820981    -0.28140
C404        C  0.22439497  0.70266854  0.98042762    -0.03380
C405        C  0.24457901  0.72374943  0.99873628     0.05230
C406        C  0.26562669  0.70314793  0.01685650     0.03320
H407        H  0.20580435  0.70896092  0.96217511     0.08430
H408        H  0.28535119  0.71038389  0.03372652     0.07260
N409        N  0.16107065  0.45246761  0.80549136    -0.27120
N410        N  0.13071508  0.44733852  0.79339180    -0.34980
C411        C  0.10874891  0.46392392  0.81336376     0.01220
C412        C  0.12650956  0.47936671  0.83916325     0.07240
C413        C  0.15943151  0.47130178  0.83286708    -0.05860
H414        H  0.08202901  0.46527158  0.80910405     0.07910
H415        H  0.18128087  0.48020289  0.84596481     0.09110
Cu416      Cu  0.12294926  0.41825807  0.74928289     0.44170
Cu417      Cu  0.20592517  0.43925901  0.78502154     0.41990
Cu418      Cu  0.20498861  0.39511321  0.71409286     0.43880
N419        N  0.13015089  0.38897765  0.70512831    -0.34510
N420        N  0.16053015  0.38309315  0.69318310    -0.28760
C421        C  0.15900583  0.36435803  0.66577635    -0.04860
C422        C  0.12608108  0.35707150  0.65931434     0.07350
C423        C  0.10818746  0.37292253  0.68502116     0.01150
H424        H  0.18087635  0.35491493  0.65282785     0.08800
H425        H  0.08139800  0.37215394  0.68914707     0.07880
N426        N  0.24914480  0.40796860  0.73507012    -0.35960
N427        N  0.24963355  0.42616086  0.76223646    -0.28140
C428        C  0.28143822  0.43234966  0.77055593    -0.03380
C429        C  0.30189137  0.41709930  0.74714834     0.05230
C430        C  0.28053642  0.40138809  0.72521699     0.03320
H431        H  0.28904926  0.44674499  0.79199427     0.08430
H432        H  0.28687060  0.38563677  0.70437437     0.07260
C433        C  0.11553101  0.50372289  0.86506170     0.03300
C434        C  0.13637095  0.51000540  0.89275412    -0.12850
C435        C  0.13081134  0.53758133  0.91340513     0.00800
C436        C  0.10273602  0.55813504  0.90735712    -0.11380
C437        C  0.08148345  0.55233707  0.88015397     0.03290
C438        C  0.08769383  0.52442084  0.85962289    -0.10800
H439        H  0.15840747  0.49483930  0.89690861     0.08880
H440        H  0.09867257  0.57998901  0.92255952     0.06410
H441        H  0.07216017  0.51992721  0.83803961     0.06260
N442        N  0.18582248  0.25583984  0.52683259    -0.27120
N443        N  0.20061783  0.28515542  0.52559510    -0.34980
C444        C  0.18249979  0.30618932  0.54510279     0.01220
C445        C  0.15515227  0.28898420  0.55870234     0.07240
C446        C  0.15859042  0.25725997  0.54629903    -0.05860
H447        H  0.18920540  0.33175103  0.54980664     0.07910
H448        H  0.14373784  0.23574175  0.55261990     0.09110
Cu449      Cu  0.24614952  0.29236020  0.49824245     0.44170
Cu450      Cu  0.20364407  0.21194120  0.50849519     0.41990
Cu451      Cu  0.28560094  0.21112140  0.48441295     0.43880
N452        N  0.29148805  0.28466979  0.47065071    -0.34510
N453        N  0.30538629  0.25489306  0.46840230    -0.28760
C454        C  0.33256540  0.25594570  0.44885510    -0.04860
C455        C  0.33684277  0.28790206  0.43738869     0.07350
C456        C  0.31011629  0.30566100  0.45168745     0.01150
H457        H  0.34659906  0.23409952  0.44155948     0.08800
H458        H  0.30407363  0.33156138  0.44768688     0.07880
N459        N  0.25964964  0.16803630  0.49010902    -0.35960
N460        N  0.22789499  0.16826769  0.49911976    -0.28140
C461        C  0.21698811  0.13693860  0.50193715    -0.03380
C462        C  0.24334376  0.11634143  0.49362218     0.05230
C463        C  0.27007038  0.13661503  0.48630255     0.03320
H464        H  0.19212018  0.12978528  0.50995149     0.08430
H465        H  0.29524758  0.12916082  0.47946913     0.07260
C466        C  0.13002489  0.29918446  0.58454578     0.03300
C467        C  0.13601837  0.32633600  0.60562587    -0.12850
C468        C  0.11518697  0.33281693  0.63349614     0.00800
C469        C  0.08723961  0.31253673  0.63909992    -0.11380
C470        C  0.08076434  0.28488426  0.61847621     0.03290
C471        C  0.10176669  0.27905721  0.59086892    -0.10800
H472        H  0.15800817  0.34140237  0.60133748     0.08880
H473        H  0.07175324  0.31725502  0.66079477     0.06410
H474        H  0.09692735  0.25775653  0.57526282     0.06260
N475        N  0.33656483  0.44186587  0.18530551    -0.27120
N476        N  0.36555908  0.44276131  0.20112065    -0.34980
C477        C  0.38601859  0.46353489  0.18392570     0.01220
C478        C  0.36881483  0.47597018  0.15609714     0.07240
C479        C  0.33764902  0.46133141  0.15823654    -0.05860
H480        H  0.41096628  0.47019342  0.19186504     0.07910
H481        H  0.31599816  0.46641912  0.14292532     0.09110
Cu482      Cu  0.37256761  0.41732330  0.24729268     0.44170
Cu483      Cu  0.29273813  0.42259363  0.20338686     0.41990
Cu484      Cu  0.29171762  0.41149518  0.28927563     0.43880
N485        N  0.36456097  0.39151718  0.29312336    -0.34510
N486        N  0.33502285  0.39185017  0.30817008    -0.28760
C487        C  0.33568363  0.37234148  0.33524306    -0.04860
C488        C  0.36714763  0.35831181  0.33815818     0.07350
C489        C  0.38495875  0.37109362  0.31080895     0.01150
H490        H  0.31374861  0.36695393  0.35016831     0.08800
H491        H  0.41039282  0.36503439  0.30361263     0.07880
N492        N  0.24852428  0.41722200  0.26253564    -0.35960
N493        N  0.24881390  0.42020362  0.22977413    -0.28140
C494        C  0.21721349  0.42226799  0.21867175    -0.03380
C495        C  0.19614327  0.42041413  0.24604105     0.05230
C496        C  0.21674216  0.41680410  0.27341955     0.03320
H497        H  0.21026883  0.42405903  0.19266080     0.08430
H498        H  0.20921268  0.41371311  0.29921670     0.07260
N499        N  0.66183396  0.94903920  0.30666672    -0.27120
N500        N  0.63165615  0.94556796  0.29360853    -0.34980
C501        C  0.60995888  0.96327407  0.31284653     0.01220
C502        C  0.62766640  0.97792826  0.33913722     0.07240
C503        C  0.66033202  0.96806473  0.33393527    -0.05860
H504        H  0.58354135  0.96612101  0.30757546     0.07910
H505        H  0.68224833  0.97607198  0.34748357     0.09110
Cu506      Cu  0.62403994  0.91780996  0.24878304     0.44170
Cu507      Cu  0.70645443  0.93468620  0.28631149     0.41990
Cu508      Cu  0.70556822  0.90368894  0.20764800     0.43880
N509        N  0.63110222  0.89013339  0.20372578    -0.34510
N510        N  0.66093285  0.88751891  0.18944973    -0.28760
C511        C  0.65926381  0.86834929  0.16232026    -0.04860
C512        C  0.62683643  0.85750826  0.15845126     0.07350
C513        C  0.60946009  0.87173654  0.18540922     0.01150
H514        H  0.68100864  0.86105901  0.14787469     0.08800
H515        H  0.58334259  0.86818456  0.19171799     0.07880
N516        N  0.74972397  0.91427221  0.23052915    -0.35960
N517        N  0.75003570  0.92655929  0.26090438    -0.28140
C518        C  0.78177924  0.93117194  0.27045052    -0.03380
C519        C  0.80248208  0.92105012  0.24458948     0.05230
C520        C  0.78126728  0.90999719  0.21976017     0.03320
H521        H  0.78919655  0.94084576  0.29449056     0.08430
H522        H  0.78784945  0.89846043  0.19634152     0.07260
N523        N  0.52652297  0.72696126  0.16379464    -0.27120
N524        N  0.52399222  0.71324310  0.13390873    -0.34980
C525        C  0.54241277  0.73193287  0.11243768     0.01220
C526        C  0.55659089  0.75852820  0.12995603     0.07240
C527        C  0.54566300  0.75410001  0.16229731    -0.05860
H528        H  0.54607779  0.72608791  0.08632680     0.07910
H529        H  0.55301161  0.76812071  0.18406634     0.09110
Cu530      Cu  0.49655138  0.66822912  0.12633303     0.44170
Cu531      Cu  0.51093059  0.70752216  0.20824482     0.41990
Cu532      Cu  0.48329714  0.62752955  0.20715153     0.43880
N533        N  0.46921314  0.62300215  0.13326730    -0.34510
N534        N  0.46703921  0.60873262  0.16295134    -0.28760
C535        C  0.44799789  0.58154065  0.16140347    -0.04860
C536        C  0.43675217  0.57764730  0.12920669     0.07350
C537        C  0.45063796  0.60462358  0.11183916     0.01150
H538        H  0.44097897  0.56706397  0.18306525     0.08800
H539        H  0.44669919  0.61089495  0.08588104     0.07880
N540        N  0.49232104  0.65119212  0.25107573    -0.35960
N541        N  0.50308643  0.68199444  0.25158258    -0.28140
C542        C  0.50698594  0.69164335  0.28331841    -0.03380
C543        C  0.49803233  0.66537933  0.30375171     0.05230
C544        C  0.48833436  0.64024111  0.28242043     0.03320
H545        H  0.51556851  0.71592661  0.29090979     0.08430
H546        H  0.47797321  0.61635658  0.28878994     0.07260
N547        N  0.80485030  0.75501829  0.96528278    -0.27120
N548        N  0.79182440  0.78489233  0.97003507    -0.34980
C549        C  0.81139458  0.80684045  0.95321555     0.01220
C550        C  0.83787829  0.78951865  0.93796094     0.07240
C551        C  0.83241541  0.75689448  0.94642588    -0.05860
H552        H  0.80634246  0.83319330  0.95148986     0.07910
H553        H  0.84613544  0.73536648  0.93769438     0.09110
Cu554      Cu  0.74694200  0.79155153  0.99868144     0.44170
Cu555      Cu  0.78504808  0.71056390  0.97867851     0.41990
Cu556      Cu  0.71033824  0.70911314  0.01782293     0.43880
N557        N  0.70230156  0.78345941  0.02729589    -0.34510
N558        N  0.68974206  0.75339490  0.03170906    -0.28760
C559        C  0.66227502  0.75483971  0.05083363    -0.04860
C560        C  0.65645696  0.78731277  0.05981348     0.07350
C561        C  0.68256452  0.80499988  0.04455411     0.01150
H562        H  0.64891399  0.73311960  0.05943640     0.08800
H563        H  0.68731090  0.83134364  0.04661269     0.07880
N564        N  0.73459844  0.66593682  0.00657412    -0.35960
N565        N  0.76338584  0.66656943  0.99060903    -0.28140
C566        C  0.77389729  0.63546852  0.98490817    -0.03380
C567        C  0.75063959  0.61414837  0.99888187     0.05230
C568        C  0.72585547  0.63435562  0.01218689     0.03320
H569        H  0.79605091  0.62929521  0.97074776     0.08430
H570        H  0.70315813  0.62672231  0.02482272     0.07260
C571        C  0.58214377  0.78351160  0.11939833     0.03300
C572        C  0.58865162  0.81140372  0.13975885    -0.12850
C573        C  0.61621893  0.83211773  0.13350663     0.00800
C574        C  0.63662306  0.82562403  0.10534780    -0.11380
C575        C  0.63089562  0.79798226  0.08491155     0.03290
C576        C  0.60301131  0.77753145  0.09172757    -0.10800
H577        H  0.57330714  0.81610972  0.16155631     0.08880
H578        H  0.65825079  0.84095139  0.10032164     0.06410
H579        H  0.59854563  0.75581940  0.07653370     0.06260
C580        C  0.63213031  0.03758932  0.41237006     0.03300
C581        C  0.60388798  0.05790700  0.40612235    -0.12850
C582        C  0.58246522  0.05159513  0.37911425     0.00800
C583        C  0.58897898  0.02357387  0.35880374    -0.11380
C584        C  0.61700809  0.00313320  0.36439092     0.03290
C585        C  0.63784766  0.00987117  0.39196779    -0.10800
H586        H  0.59952827  0.07970074  0.42130918     0.08880
H587        H  0.57329058  0.01851856  0.33748836     0.06410
H588        H  0.65984372  0.99476261  0.39643778     0.06260
N589        N  0.02733554  0.61031632  0.83596667    -0.27120
N590        N  0.02463406  0.62398003  0.86587211    -0.34980
C591        C  0.04242057  0.60473294  0.88736405     0.01220
C592        C  0.05629921  0.57783384  0.86978772     0.07240
C593        C  0.04591752  0.58269579  0.83742061    -0.05860
H594        H  0.04592094  0.61040310  0.91350767     0.07910
H595        H  0.05337891  0.56866368  0.81560427     0.09110
Cu596      Cu  0.99780170  0.66962891  0.87306650     0.44170
Cu597      Cu  0.01292297  0.63040103  0.79165293     0.41990
Cu598      Cu  0.98630822  0.71074117  0.79172464     0.43880
N599        N  0.97099108  0.71523962  0.86558262    -0.34510
N600        N  0.96938079  0.72949219  0.83585602    -0.28760
C601        C  0.95038853  0.75686307  0.83717803    -0.04860
C602        C  0.93862063  0.76095184  0.86926302     0.07350
C603        C  0.95213853  0.73386633  0.88680179     0.01150
H604        H  0.94377367  0.77131171  0.81539000     0.08800
H605        H  0.94770970  0.72763443  0.91271422     0.07880
N606        N  0.99576289  0.68657462  0.74809946    -0.35960
N607        N  0.00622360  0.65554564  0.74811268    -0.28140
C608        C  0.01028631  0.64518527  0.71659524    -0.03380
C609        C  0.00153356  0.67119078  0.69603762     0.05230
C610        C  0.99214446  0.69703005  0.71654956     0.03320
H611        H  0.01821872  0.62051817  0.70928824     0.08430
H612        H  0.98309035  0.72130514  0.70920069     0.07260
N613        N  0.69197714  0.08316462  0.46251720    -0.27120
N614        N  0.70412430  0.05313231  0.46843186    -0.34980
C615        C  0.68405309  0.03118752  0.45238141     0.01220
C616        C  0.65813805  0.04870419  0.43650456     0.07240
C617        C  0.66446218  0.08141072  0.44375611    -0.05860
H618        H  0.68829976  0.00465503  0.45168841     0.07910
H619        H  0.65127791  0.10295987  0.43432984     0.09110
Cu620      Cu  0.74841663  0.04623752  0.49787499     0.44170
Cu621      Cu  0.71268613  0.12744270  0.47475502     0.41990
Cu622      Cu  0.78457777  0.12845362  0.51824798     0.43880
N623        N  0.79254136  0.05404202  0.52725066    -0.34510
N624        N  0.80486312  0.08410449  0.53216233    -0.28760
C625        C  0.83207634  0.08255252  0.55142988    -0.04860
C626        C  0.83800560  0.04999746  0.56001681     0.07350
C627        C  0.81220315  0.03236907  0.54437341     0.01150
H628        H  0.84527871  0.10421897  0.56025767     0.08800
H629        H  0.80769979  0.00594710  0.54597001     0.07880
N630        N  0.76142505  0.17173542  0.50549619    -0.35960
N631        N  0.73389358  0.17127187  0.48766990    -0.28140
C632        C  0.72391595  0.20242363  0.48138827    -0.03380
C633        C  0.74615449  0.22359223  0.49691339     0.05230
C634        C  0.76984507  0.20325210  0.51174370     0.03320
H635        H  0.70280648  0.20872339  0.46592063     0.08430
H636        H  0.79155991  0.21074759  0.52589672     0.07260
N637        N  0.97102716  0.10765817  0.66178280    -0.27120
N638        N  0.97155984  0.12271698  0.63242070    -0.34980
C639        C  0.95195095  0.10495077  0.61145311     0.01220
C640        C  0.93890051  0.07756134  0.62872001     0.07240
C641        C  0.95185439  0.08053146  0.66043281    -0.05860
H642        H  0.94659894  0.11207880  0.58598169     0.07910
H643        H  0.94581845  0.06561162  0.68207088     0.09110
Cu644      Cu  0.99742341  0.16847179  0.62509285     0.44170
Cu645      Cu  0.98863019  0.12598858  0.70584922     0.41990
Cu646      Cu  0.00733120  0.20921961  0.70592078     0.43880
N647        N  0.02312126  0.21426642  0.63233109    -0.34510
N648        N  0.02415448  0.22863701  0.66196770    -0.28760
C649        C  0.04287873  0.25605940  0.66064590    -0.04860
C650        C  0.05499719  0.25998310  0.62862327     0.07350
C651        C  0.04197536  0.23280003  0.61115995     0.01150
H652        H  0.04919914  0.27054471  0.68242544     0.08800
H653        H  0.04684712  0.22634206  0.58539144     0.07880
N654        N  0.00065106  0.18365762  0.74936370    -0.35960
N655        N  0.99384863  0.15168914  0.74942258    -0.28140
C656        C  0.99095186  0.14104636  0.78102338    -0.03380
C657        C  0.99648657  0.16788652  0.80161638     0.05230
C658        C  0.00296261  0.19445269  0.78088666     0.03320
H659        H  0.98592811  0.11568035  0.78833962     0.08430
H660        H  0.00901700  0.21959706  0.78811350     0.07260
N661        N  0.83441515  0.89022773  0.80805794    -0.27120
N662        N  0.86441502  0.89243007  0.79409201    -0.34980
C663        C  0.88584156  0.87404437  0.81284204     0.01220
C664        C  0.86818231  0.86017086  0.83975255     0.07240
C665        C  0.83579219  0.87127385  0.83544074    -0.05860
H666        H  0.91198562  0.87013611  0.80676165     0.07910
H667        H  0.81387618  0.86411724  0.84963307     0.09110
Cu668      Cu  0.87211804  0.91913932  0.74857827     0.44170
Cu669      Cu  0.78992661  0.90570726  0.78835229     0.41990
Cu670      Cu  0.79129298  0.92936608  0.70654151     0.43880
N671        N  0.86505384  0.94561489  0.70285544    -0.34510
N672        N  0.83549440  0.94670043  0.68809928    -0.28760
C673        C  0.83684530  0.96583018  0.66085717    -0.04860
C674        C  0.86879152  0.97822901  0.65741882     0.07350
C675        C  0.88620582  0.96489450  0.68472135     0.01150
H676        H  0.81505430  0.97214401  0.64618263     0.08800
H677        H  0.91191157  0.96980557  0.69152842     0.07880
N678        N  0.74713993  0.92110465  0.73070994    -0.35960
N679        N  0.74655071  0.91205290  0.76225518    -0.28140
C680        C  0.71468751  0.90859551  0.77221767    -0.03380
C681        C  0.69425349  0.91605583  0.74539016     0.05230
C682        C  0.71571015  0.92440378  0.71955002     0.03320
H683        H  0.70700646  0.90136782  0.79711061     0.08430
H684        H  0.70935649  0.93348044  0.69501700     0.07260
C685        C  0.86363193  0.03911557  0.58481846     0.03300
C686        C  0.85810105  0.01118094  0.60501817    -0.12850
C687        C  0.87879754  0.00428138  0.63275003     0.00800
C688        C  0.90641752  0.02491313  0.63876064    -0.11380
C689        C  0.91274183  0.05308406  0.61865857     0.03290
C690        C  0.89153429  0.05951431  0.59147522    -0.10800
H691        H  0.83647975  0.99590099  0.60006882     0.08880
H692        H  0.92209382  0.01976741  0.66009548     0.06410
H693        H  0.89588219  0.08138245  0.57639874     0.06260
C694        C  0.86365085  0.80052775  0.91333147     0.03300
C695        C  0.89183932  0.78018033  0.90695181    -0.12850
C696        C  0.91287717  0.78606108  0.87945276     0.00800
C697        C  0.90637738  0.81395081  0.85895119    -0.11380
C698        C  0.87857584  0.83468061  0.86484357     0.03290
C699        C  0.85785190  0.82813486  0.89274554    -0.10800
H700        H  0.89638291  0.75854470  0.92232781     0.08880
H701        H  0.92193079  0.81865793  0.83732117     0.06410
H702        H  0.83596834  0.84335625  0.89744030     0.06260
C703        C  0.37817256  0.50297756  0.13210632     0.03300
C704        C  0.40539655  0.52412100  0.13847930    -0.12850
C705        C  0.41128875  0.55265501  0.11869661     0.00800
C706        C  0.38998811  0.55911165  0.09165004    -0.11380
C707        C  0.36240643  0.53839926  0.08482711     0.03290
C708        C  0.35738369  0.51000237  0.10448456    -0.10800
H709        H  0.42119217  0.51906598  0.15975796     0.08880
H710        H  0.39379964  0.58138509  0.07699962     0.06410
H711        H  0.33596972  0.49455139  0.09925839     0.06260
C712        C  0.41078754  0.28299108  0.37717762     0.03300
C713        C  0.38981896  0.27727821  0.40479860    -0.12850
C714        C  0.36180781  0.29783439  0.41137576     0.00800
C715        C  0.35595459  0.32533614  0.39059117    -0.11380
C716        C  0.37663665  0.33179924  0.36262390     0.03290
C717        C  0.40423598  0.31080072  0.35659459    -0.10800
H718        H  0.39459824  0.25588539  0.42041217     0.08880
H719        H  0.33435975  0.34085168  0.39552163     0.06410
H720        H  0.41988898  0.31551475  0.33505804     0.06260
C721        C  0.50817862  0.64130996  0.39470264    -0.20140
C722        C  0.49629961  0.67010753  0.41031989    -0.06710
C723        C  0.48540525  0.69734787  0.39106930     0.14160
C724        C  0.48589459  0.69474047  0.35628111    -0.20190
C725        C  0.49710587  0.66564009  0.34045738    -0.06710
C726        C  0.50872093  0.63859937  0.35990396     0.14150
C727        C  0.52308764  0.60745073  0.34455226    -0.23540
H728        H  0.51690877  0.62075444  0.40991390     0.15440
H729        H  0.47744666  0.71558291  0.34132877     0.15470
C730        C  0.47460820  0.72957240  0.40700726    -0.23490
H731        H  0.53441849  0.59092996  0.36369037     0.05680
H732        H  0.54300362  0.61389259  0.32626544     0.08910
H733        H  0.50308580  0.59302775  0.33223751     0.08910
H734        H  0.49508399  0.73922178  0.42294829     0.08890
H735        H  0.45185822  0.72567521  0.42244909     0.08890
H736        H  0.46861054  0.74880812  0.38802656     0.05660
C737        C  0.24240064  0.02644095  0.46917472    -0.20140
C738        C  0.24793622  0.01094433  0.50017994    -0.06710
C739        C  0.25137620  0.03075844  0.52926682     0.14160
C740        C  0.24935059  0.06531678  0.52626780    -0.20190
C741        C  0.24399145  0.08028371  0.49529811    -0.06710
C742        C  0.24020309  0.06092973  0.46645896     0.14150
C743        C  0.23343546  0.07669596  0.43300093    -0.23540
H744        H  0.23984209  0.01155772  0.44682939     0.15440
H745        H  0.25216529  0.08087016  0.54816282     0.15470
C746        C  0.25612121  0.01632289  0.56367456    -0.23490
H747        H  0.23068513  0.05781722  0.41301213     0.05680
H748        H  0.25445027  0.09333651  0.42606852     0.08910
H749        H  0.20987452  0.09140844  0.43428510     0.08910
H750        H  0.28175119  0.00600618  0.56608992     0.08890
H751        H  0.23701077  0.99698289  0.56869717     0.08890
H752        H  0.25346198  0.03555587  0.58337866     0.05660
C753        C  0.89412607  0.92979229  0.22101808    -0.20140
C754        C  0.90927977  0.91985929  0.25084897    -0.06710
C755        C  0.88953926  0.91055384  0.27849302     0.14160
C756        C  0.85470466  0.91071202  0.27533496    -0.20190
C757        C  0.83930355  0.92005992  0.24527616    -0.06710
C758        C  0.85925492  0.92996621  0.21773653     0.14150
C759        C  0.84435063  0.94207185  0.18537765    -0.23540
H760        H  0.90975376  0.93724123  0.20012231     0.15440
H761        H  0.83938559  0.90349077  0.29651764     0.15470
C762        C  0.90502605  0.90175018  0.31163686    -0.23490
H763        H  0.86380998  0.95223057  0.16833983     0.05680
H764        H  0.82586207  0.96214376  0.19033115     0.08910
H765        H  0.83225902  0.92128441  0.17203347     0.08910
H766        H  0.92068782  0.92268237  0.32049628     0.08890
H767        H  0.92078883  0.87916732  0.30910336     0.08890
H768        H  0.88568616  0.89668523  0.33097838     0.05660
C769        C  0.97280822  0.15975830  0.89237165    -0.20140
C770        C  0.00284304  0.16916991  0.90779000    -0.06710
C771        C  0.03067560  0.17858528  0.88794557     0.14160
C772        C  0.02770276  0.17784476  0.85318383    -0.20190
C773        C  0.99789355  0.16787269  0.83802355    -0.06710
C774        C  0.96994889  0.15908576  0.85763445     0.14150
C775        C  0.93678637  0.15036229  0.84209179    -0.23540
H776        H  0.95140264  0.15292361  0.90759505     0.15440
H777        H  0.04880535  0.18496280  0.83764410     0.15470
C778        C  0.06301764  0.19081847  0.90279170    -0.23490
H779        H  0.91719129  0.14576049  0.86129594     0.05680
H780        H  0.93936401  0.12752748  0.82685801     0.08910
H781        H  0.92812309  0.17114132  0.82599585     0.08910
H782        H  0.07641613  0.17015897  0.91525643     0.08890
H783        H  0.05787970  0.21112885  0.92083294     0.08890
H784        H  0.08020171  0.20071529  0.88333178     0.05660
C785        C  0.10493613  0.44202814  0.23271230    -0.20140
C786        C  0.08929517  0.41549816  0.24922750    -0.06710
C787        C  0.10900605  0.39087958  0.26505784     0.14160
C788        C  0.14391812  0.39318935  0.26328826    -0.20190
C789        C  0.15944860  0.41932734  0.24619820    -0.06710
C790        C  0.13985501  0.44431916  0.23103084     0.14150
C791        C  0.15547476  0.47415165  0.21445079    -0.23540
H792        H  0.08971038  0.46110451  0.22104841     0.15440
H793        H  0.15927915  0.37442648  0.27529530     0.15470
C794        C  0.09375744  0.36305335  0.28517319    -0.23490
H795        H  0.13622971  0.49227928  0.20603115     0.05680
H796        H  0.17003062  0.46641574  0.19216111     0.08910
H797        H  0.17221242  0.48699375  0.23232202     0.08910
H798        H  0.08038652  0.34562793  0.26858522     0.08890
H799        H  0.07623182  0.37331493  0.30415277     0.08890
H800        H  0.11315888  0.34838988  0.29853709     0.05660
C801        C  0.39290962  0.42176248  0.72062912    -0.20140
C802        C  0.40851786  0.41820262  0.75159370    -0.06710
C803        C  0.38939112  0.41442805  0.78089643     0.14160
C804        C  0.35454870  0.41363603  0.77842108    -0.20190
C805        C  0.33864289  0.41659200  0.74735305    -0.06710
C806        C  0.35803256  0.42092104  0.71798946     0.14150
C807        C  0.34256173  0.42603930  0.68406948    -0.23540
H808        H  0.40818626  0.42495763  0.69840819     0.15440
H809        H  0.33963621  0.41066869  0.80089573     0.15470
C810        C  0.40562255  0.41234058  0.81476232    -0.23490
H811        H  0.36164262  0.43293810  0.66505228     0.05680
H812        H  0.32372827  0.44636378  0.68511296     0.08910
H813        H  0.33080330  0.40277163  0.67535420     0.08910
H814        H  0.42097866  0.43486060  0.81910364     0.08890
H815        H  0.42188713  0.38999933  0.81616783     0.08890
H816        H  0.38673163  0.41065466  0.83512357     0.05660
C817        C  0.52637470  0.15667167  0.10618460    -0.20140
C818        C  0.49696116  0.16724202  0.09020765    -0.06710
C819        C  0.46932643  0.17837690  0.10948901     0.14160
C820        C  0.47179458  0.17803925  0.14429996    -0.20190
C821        C  0.50091484  0.16678890  0.16005928    -0.06710
C822        C  0.52871796  0.15634093  0.14098105     0.14150
C823        C  0.56122710  0.14613529  0.15713545    -0.23540
H824        H  0.54765613  0.14859302  0.09134503     0.15440
H825        H  0.45080158  0.18641548  0.15940581     0.15470
C826        C  0.43778091  0.19199906  0.09393872    -0.23490
H827        H  0.58086716  0.14032727  0.13828560     0.05680
H828        H  0.55743618  0.12363001  0.17263507     0.08910
H829        H  0.57056289  0.16663804  0.17307568     0.08910
H830        H  0.42372832  0.17188482  0.08150490     0.08890
H831        H  0.44408258  0.21181492  0.07570210     0.08890
H832        H  0.42072439  0.20295633  0.11297204     0.05660
C833        C  0.02623192  0.67079412  0.60559125    -0.20140
C834        C  0.99477020  0.66800725  0.59022957    -0.06710
C835        C  0.96537547  0.66662102  0.61016979     0.14160
C836        C  0.96846712  0.66796478  0.64489639    -0.20190
C837        C  0.99990039  0.67050054  0.65982389    -0.06710
C838        C  0.02911188  0.67216422  0.64025920     0.14150
C839        C  0.06312391  0.67615478  0.65594556    -0.23540
H840        H  0.04873112  0.67193659  0.59042108     0.15440
H841        H  0.94628937  0.66687644  0.66058850     0.15470
C842        C  0.93066683  0.66501490  0.59555224    -0.23490
H843        H  0.08330604  0.67773682  0.63684708     0.05680
H844        H  0.06857645  0.65460561  0.67236518     0.08910
H845        H  0.06359308  0.69928476  0.67101432     0.08910
H846        H  0.92637400  0.64030437  0.58430927     0.08890
H847        H  0.92728026  0.68490498  0.57664294     0.08890
H848        H  0.91102319  0.66846240  0.61497756     0.05660
C849        C  0.71987883  0.31401219  0.50190054    -0.20140
C850        C  0.75098515  0.32940086  0.49809923    -0.06710
C851        C  0.78030432  0.31029736  0.49419709     0.14160
C852        C  0.77768631  0.27575843  0.49339563    -0.20190
C853        C  0.74646908  0.26007224  0.49650766    -0.06710
C854        C  0.71710226  0.27942812  0.50107129     0.14150
C855        C  0.68303023  0.26422966  0.50643141    -0.23540
H856        H  0.69764175  0.32922888  0.50523945     0.15440
H857        H  0.80018334  0.26091303  0.49027478     0.15470
C858        C  0.81436532  0.32622581  0.49201989    -0.23490
H859        H  0.66405850  0.28321735  0.51354972     0.05680
H860        H  0.68409558  0.24556565  0.52682050     0.08910
H861        H  0.67413045  0.25261140  0.48307181     0.08910
H862        H  0.81876466  0.34152406  0.51462912     0.08890
H863        H  0.81589701  0.34222838  0.46951904     0.08890
H864        H  0.83471452  0.30740715  0.49033933     0.05660
C865        C  0.77659525  0.52370025  0.00519872    -0.20140
C866        C  0.74588995  0.50826506  0.99921831    -0.06710
C867        C  0.71692582  0.52738398  0.99333933     0.14160
C868        C  0.71955326  0.56194300  0.99286770    -0.20190
C869        C  0.75041062  0.57765518  0.99822638    -0.06710
C870        C  0.77937284  0.55829895  0.00469945     0.14150
C871        C  0.81290853  0.57351851  0.01246179    -0.23540
H872        H  0.79854432  0.50850721  0.01003375     0.15440
H873        H  0.69733741  0.57679213  0.98827334     0.15470
C874        C  0.68311704  0.51147884  0.98879840    -0.23490
H875        H  0.83135067  0.55450456  0.02069654     0.05680
H876        H  0.81024476  0.59198018  0.03286650     0.08910
H877        H  0.82351128  0.58539963  0.98985690     0.08910
H878        H  0.67704175  0.49598443  0.01095288     0.08890
H879        H  0.68324834  0.49569655  0.96613451     0.08890
H880        H  0.66293568  0.53031615  0.98590053     0.05660
C881        C  0.64157949  0.92972034  0.77440717    -0.20140
C882        C  0.65743302  0.91703827  0.74576584    -0.06710
C883        C  0.63791425  0.90406218  0.71942534     0.14160
C884        C  0.60300223  0.90467262  0.72235195    -0.20190
C885        C  0.58734794  0.91794416  0.75067946    -0.06710
C886        C  0.60668372  0.93028284  0.77724087     0.14150
C887        C  0.59075571  0.94270927  0.80907973    -0.23540
H888        H  0.65660204  0.93925318  0.79472612     0.15440
H889        H  0.58773124  0.89491246  0.70231317     0.15470
C890        C  0.65331950  0.88823410  0.68888300    -0.23490
H891        H  0.60984216  0.94961541  0.82792579     0.05680
H892        H  0.57472808  0.92299936  0.82005738     0.08910
H893        H  0.57532743  0.96506573  0.80398156     0.08910
H894        H  0.67164513  0.86884059  0.69638797     0.08890
H895        H  0.66572187  0.90727838  0.67323638     0.08890
H896        H  0.63411286  0.87619567  0.67301249     0.05660
C897        C  0.27720350  0.77536466  0.00168744    -0.20140
C898        C  0.24568234  0.76030773  0.99823025    -0.06710
C899        C  0.21647320  0.78040519  0.99657026     0.14160
C900        C  0.21981477  0.81492223  0.99825051    -0.20190
C901        C  0.25130924  0.82952625  0.00141202    -0.06710
C902        C  0.28032169  0.80981856  0.00341669     0.14150
C903        C  0.31438317  0.82513963  0.00804058    -0.23540
H904        H  0.29958476  0.76013394  0.00302176     0.15440
H905        H  0.19778756  0.83070752  0.99687563     0.15470
C906        C  0.18167555  0.76618944  0.99424284    -0.23490
H907        H  0.33440268  0.80599077  0.00976131     0.05680
H908        H  0.31462102  0.83993425  0.03142638     0.08910
H909        H  0.32025920  0.84160902  0.98658801     0.08910
H910        H  0.17781326  0.74715868  0.01394018     0.08890
H911        H  0.17767153  0.75540107  0.96917436     0.08890
H912        H  0.16214801  0.78562874  0.99767698     0.05660
loop_ 
_geom_bond_atom_site_label_1 
_geom_bond_atom_site_label_2 
_geom_bond_distance 
_geom_bond_site_symmetry_2 
_ccdc_geom_bond_type 
N1            N2   1.323       .  A
N1            C5   1.337       .  A
N1           Cu9   2.036   1_545  S
N2            C3   1.358       .  A
N2           Cu8   2.141       .  S
C3            C4   1.403       .  A
C3            H6   1.082       .  S
C4            C5   1.376       .  A
C4          C154   1.494       .  S
C5            H7   1.081   1_545  S
Cu8          N11   2.141   1_556  S
Cu9          N19   2.036       .  S
Cu10         N12   2.037   1_565  S
Cu10         N18   2.037       .  S
N11          N12   1.323       .  A
N11          C15   1.358       .  A
N12          C13   1.336       .  A
C13          C14   1.377       .  A
C13          H16   1.081   1_545  S
C14          C15   1.404       .  A
C14         C246   1.495       .  S
C15          H17   1.081       .  S
N18          N19   1.316   1_554  A
N18          C22   1.340       .  A
N19          C20   1.339       .  A
C20          C21   1.377   1_556  A
C20          H23   1.082       .  S
C21          C22   1.377       .  A
C21         C901   1.454       .  S
C22          H24   1.082       .  S
N25          N26   1.322       .  A
N25          C29   1.339       .  A
N25         Cu33   2.044       .  S
N26          C27   1.357       .  A
N26         Cu32   2.140       .  S
C27          C28   1.403       .  A
C27          H30   1.081       .  S
C28          C29   1.379       .  A
C28         C334   1.498       .  S
C29          H31   1.081       .  S
Cu32         N35   2.140       .  S
Cu33         N43   2.043       .  S
Cu34         N36   2.039       .  S
Cu34         N42   2.040       .  S
N35          N36   1.322       .  A
N35          C39   1.357       .  A
N36          C37   1.338   1_565  A
C37          C38   1.379       .  A
C37          H40   1.081       .  S
C38          C39   1.404   1_545  A
C38         C158   1.498       .  S
C39          H41   1.081       .  S
N42          N43   1.317       .  A
N42          C46   1.340       .  A
N43          C44   1.340       .  A
C44          C45   1.379       .  A
C44          H47   1.082       .  S
C45          C46   1.379       .  A
C45         C885   1.461       .  S
C46          H48   1.082       .  S
N49          N50   1.323       .  A
N49          C53   1.337       .  A
N49         Cu57   2.038       .  S
N50          C51   1.357       .  A
N50         Cu56   2.138   1_554  S
C51          C52   1.403       .  A
C51          H54   1.081       .  S
C52          C53   1.377       .  A
C52         C211   1.494       .  S
C53          H55   1.081       .  S
Cu56         N59   2.138       .  S
Cu57         N67   2.038       .  S
Cu58         N60   2.039       .  S
Cu58         N66   2.039       .  S
N59          N60   1.322       .  A
N59          C63   1.357       .  A
N60          C61   1.337       .  A
C61          C62   1.377       .  A
C61          H64   1.081       .  S
C62          C63   1.403       .  A
C62         C354   1.495       .  S
C63          H65   1.081       .  S
N66          N67   1.316   1_556  A
N66          C70   1.340       .  A
N67          C68   1.340       .  A
C68          C69   1.378   1_554  A
C68          H71   1.082       .  S
C69          C70   1.378       .  A
C69         C866   1.458       .  S
C70          H72   1.082       .  S
N73          N74   1.322       .  A
N73          C77   1.336       .  A
N73         Cu81   2.035       .  S
N74          C75   1.357       .  A
N74         Cu80   2.139       .  S
C75          C76   1.403       .  A
C75          H78   1.081       .  S
C76          C77   1.376       .  A
C76         C343   1.493       .  S
C77          H79   1.081       .  S
Cu80         N83   2.140       .  S
Cu81         N91   2.034       .  S
Cu82         N84   2.038       .  S
Cu82         N90   2.037       .  S
N83          N84   1.323       .  A
N83          C87   1.358       .  A
N84          C85   1.337       .  A
C85          C86   1.377       .  A
C85          H88   1.081       .  S
C86          C87   1.403       .  A
C86         C101   1.494       .  S
C87          H89   1.082       .  S
N90          N91   1.316       .  A
N90          C94   1.339       .  A
N91          C92   1.340       .  A
C92          C93   1.378       .  A
C92          H95   1.082       .  S
C93          C94   1.378       .  A
C93         C850   1.456       .  S
C94          H96   1.082       .  S
C97          C98   1.402       .  A
C97         C102   1.412       .  A
C97         C109   1.489       .  S
C98          C99   1.412       .  A
C98         H103   1.081       .  S
C99         C100   1.406       .  A
C99         C190   1.494       .  S
C100        C101   1.414       .  A
C100        H104   1.081       .  S
C101        C102   1.403       .  A
C102        H105   1.082       .  S
N106        N107   1.323       .  A
N106        C110   1.334       .  A
N106       Cu114   2.028       .  S
N107        C108   1.358       .  A
N107       Cu113   2.141       .  S
C108        C109   1.403       .  A
C108        H111   1.082       .  S
C109        C110   1.373       .  A
C110        H112   1.082       .  S
Cu113       N116   2.142   1_655  S
Cu114       N124   2.026       .  S
Cu115       N117   2.035       .  S
Cu115       N123   2.033       .  S
N116        N117   1.324       .  A
N116        C120   1.358       .  A
N117        C118   1.335       .  A
C118        C119   1.374       .  A
C118        H121   1.082       .  S
C119        C120   1.402       .  A
C119        C301   1.490       .  S
C120        H122   1.082       .  S
N123        N124   1.312   1_455  A
N123        C127   1.338       .  A
N124        C125   1.338       .  A
C125        C126   1.384       .  A
C125        H128   1.075       .  S
C126        C127   1.385   1_655  A
C126        C834   1.471       .  S
C127        H129   1.081       .  S
N130        N131   1.323       .  A
N130        C134   1.337       .  A
N130       Cu138   2.042       .  S
N131        C132   1.358       .  A
N131       Cu137   2.143       .  S
C132        C133   1.403       .  A
C132        H135   1.082       .  S
C133        C134   1.377       .  A
C133        C356   1.495       .  S
C134        H136   1.081       .  S
Cu137       N140   2.142       .  S
Cu138       N148   2.041   1_556  S
Cu139       N141   2.034       .  S
Cu139       N147   2.034   1_556  S
N140        N141   1.322       .  A
N140        C144   1.359       .  A
N141        C142   1.335       .  A
C142        C143   1.377       .  A
C142        H145   1.081       .  S
C143        C144   1.404       .  A
C143        C156   1.495       .  S
C144        H146   1.081       .  S
N147        N148   1.314       .  A
N147        C151   1.339       .  A
N148        C149   1.339       .  A
C149        C150   1.384       .  A
C149        H152   1.082       .  S
C150        C151   1.382       .  A
C150        C818   1.470       .  S
C151        H153   1.078       .  S
C154        C155   1.403       .  A
C154        C159   1.413       .  A
C155        C156   1.413       .  A
C155        H160   1.081       .  S
C156        C157   1.405       .  A
C157        C158   1.415       .  A
C157        H161   1.080       .  S
C158        C159   1.406       .  A
C159        H162   1.081       .  S
N163        N164   1.322       .  A
N163        C167   1.336       .  A
N163       Cu171   2.034       .  S
N164        C165   1.358       .  A
N164       Cu170   2.144       .  S
C165        C166   1.404       .  A
C165        H168   1.082       .  S
C166        C167   1.376       .  A
C166        C352   1.495       .  S
C167        H169   1.081       .  S
Cu170       N173   2.144       .  S
Cu171       N181   2.034       .  S
Cu172       N174   2.034       .  S
Cu172       N180   2.033       .  S
N173        N174   1.323       .  A
N173        C177   1.358       .  A
N174        C175   1.336       .  A
C175        C176   1.376       .  A
C175        H178   1.081       .  S
C176        C177   1.404       .  A
C176        C345   1.495       .  S
C177        H179   1.081       .  S
N180        N181   1.316       .  A
N180        C184   1.339       .  A
N181        C182   1.339       .  A
C182        C183   1.377       .  A
C182        H185   1.082       .  S
C183        C184   1.377       .  A
C183        C802   1.454       .  S
C184        H186   1.082       .  S
N187        N188   1.323       .  A
N187        C191   1.337       .  A
N187       Cu195   2.044       .  S
N188        C189   1.356       .  A
N188       Cu194   2.132       .  S
C189        C190   1.401       .  A
C189        H192   1.081       .  S
C190        C191   1.379       .  A
C191        H193   1.081       .  S
Cu194       N197   2.132       .  S
Cu195       N205   2.044   1_655  S
Cu196       N198   2.041       .  S
Cu196       N204   2.041       .  S
N197        N198   1.322       .  A
N197        C201   1.356       .  A
N198        C199   1.337       .  A
C199        C200   1.379       .  A
C199        H202   1.081       .  S
C200        C201   1.402       .  A
C200        C213   1.496       .  S
C201        H203   1.081       .  S
N204        N205   1.316   1_655  A
N204        C208   1.340   1_655  A
N205        C206   1.340       .  A
C206        C207   1.383       .  A
C206        H209   1.082       .  S
C207        C208   1.382       .  A
C207        C786   1.470       .  S
C208        H210   1.080       .  S
C211        C212   1.413       .  A
C211        C216   1.403       .  A
C212        C213   1.405       .  A
C212        H217   1.080       .  S
C213        C214   1.413       .  A
C214        C215   1.404       .  A
C214        H218   1.080       .  S
C215        C216   1.412       .  A
C215        C223   1.492       .  S
C216        H219   1.081       .  S
N220        N221   1.323       .  A
N220        C224   1.336       .  A
N220       Cu228   2.039       .  S
N221        C222   1.357       .  A
N221       Cu227   2.138       .  S
C222        C223   1.402       .  A
C222        H225   1.082       .  S
C223        C224   1.376       .  A
C224        H226   1.081       .  S
Cu227       N230   2.138   1_655  S
Cu228       N238   2.038   1_554  S
Cu229       N231   2.033       .  S
Cu229       N237   2.033   1_554  S
N230        N231   1.322       .  A
N230        C234   1.358       .  A
N231        C232   1.335       .  A
C232        C233   1.376       .  A
C232        H235   1.081       .  S
C233        C234   1.403       .  A
C233        C244   1.493       .  S
C234        H236   1.082       .  S
N237        N238   1.314   1_455  A
N237        C241   1.339       .  A
N238        C239   1.339       .  A
C239        C240   1.384   1_655  A
C239        H242   1.082       .  S
C240        C241   1.383       .  A
C240        C770   1.470       .  S
C241        H243   1.078       .  S
C244        C245   1.413       .  A
C244        C249   1.404       .  A
C245        C246   1.403       .  A
C245        H250   1.081       .  S
C246        C247   1.413       .  A
C247        C248   1.405       .  A
C247        H251   1.080       .  S
C248        C249   1.413       .  A
C248        C256   1.495       .  S
C249        H252   1.080       .  S
N253        N254   1.322       .  A
N253        C257   1.337   1_565  A
N253       Cu261   2.040       .  S
N254        C255   1.357       .  A
N254       Cu260   2.136       .  S
C255        C256   1.403   1_565  A
C255        H258   1.081       .  S
C256        C257   1.378       .  A
C257        H259   1.081       .  S
Cu260       N263   2.136       .  S
Cu261       N271   2.040   1_455  S
Cu262       N264   2.041       .  S
Cu262       N270   2.041   1_455  S
N263        N264   1.322       .  A
N263        C267   1.357       .  A
N264        C265   1.337       .  A
C265        C266   1.379       .  A
C265        H268   1.081       .  S
C266        C267   1.402       .  A
C266        C305   1.495       .  S
C267        H269   1.082       .  S
N270        N271   1.317       .  A
N270        C274   1.340       .  A
N271        C272   1.340       .  A
C272        C273   1.379       .  A
C272        H275   1.082       .  S
C273        C274   1.379       .  A
C273        C754   1.460       .  S
C274        H276   1.082       .  S
N277        N278   1.323       .  A
N277        C281   1.335       .  A
N277       Cu285   2.028       .  S
N278        C279   1.359       .  A
N278       Cu284   2.145       .  S
C279        C280   1.403       .  A
C279        H282   1.082       .  S
C280        C281   1.373       .  A
C280        C336   1.490       .  S
C281        H283   1.082       .  S
Cu284       N287   2.145       .  S
Cu285       N295   2.027       .  S
Cu286       N288   2.038       .  S
Cu286       N294   2.037       .  S
N287        N288   1.324       .  A
N287        C291   1.358       .  A
N288        C289   1.336       .  A
C289        C290   1.374       .  A
C289        H292   1.082       .  S
C290        C291   1.402       .  A
C290        C303   1.490       .  S
C291        H293   1.082       .  S
N294        N295   1.312       .  A
N294        C298   1.338       .  A
N295        C296   1.338       .  A
C296        C297   1.385       .  A
C296        H299   1.075       .  S
C297        C298   1.387       .  A
C297        C738   1.476   1_565  S
C298        H300   1.081       .  S
C301        C302   1.412       .  A
C301        C306   1.403       .  A
C302        C303   1.402       .  A
C302        H307   1.083       .  S
C303        C304   1.413       .  A
C304        C305   1.406       .  A
C304        H308   1.082       .  S
C305        C306   1.414       .  A
C306        H309   1.081       .  S
N310        N311   1.322       .  A
N310        C314   1.337       .  A
N310       Cu318   2.043       .  S
N311        C312   1.357       .  A
N311       Cu317   2.131       .  S
C312        C313   1.402       .  A
C312        H315   1.081       .  S
C313        C314   1.380       .  A
C313        C338   1.496       .  S
C314        H316   1.081       .  S
Cu317       N320   2.132       .  S
Cu318       N328   2.043       .  S
Cu319       N321   2.042       .  S
Cu319       N327   2.042       .  S
N320        N321   1.322       .  A
N320        C324   1.356       .  A
N321        C322   1.337       .  A
C322        C323   1.379       .  A
C322        H325   1.081       .  S
C323        C324   1.402       .  A
C323        C347   1.495       .  S
C324        H326   1.081       .  S
N327        N328   1.317       .  A
N327        C331   1.340       .  A
N328        C329   1.341       .  A
C329        C330   1.380       .  A
C329        H332   1.082       .  S
C330        C331   1.379       .  A
C330        C722   1.461       .  S
C331        H333   1.082       .  S
C334        C335   1.405       .  A
C334        C339   1.415       .  A
C335        C336   1.412       .  A
C335        H340   1.082       .  S
C336        C337   1.401       .  A
C337        C338   1.412       .  A
C337        H341   1.081       .  S
C338        C339   1.407       .  A
C339        H342   1.080       .  S
C343        C344   1.413       .  A
C343        C348   1.403       .  A
C344        C345   1.403       .  A
C344        H349   1.081       .  S
C345        C346   1.414       .  A
C346        C347   1.405       .  A
C346        H350   1.081       .  S
C347        C348   1.413       .  A
C348        H351   1.081       .  S
C352        C353   1.404       .  A
C352        C357   1.414       .  A
C353        C354   1.413       .  A
C353        H358   1.081       .  S
C354        C355   1.404       .  A
C355        C356   1.413       .  A
C355        H359   1.081       .  S
C356        C357   1.405       .  A
C357        H360   1.081       .  S
N361        N362   1.322       .  A
N361        C365   1.338       .  A
N361       Cu369   2.040       .  S
N362        C363   1.357       .  A
N362       Cu368   2.141       .  S
C363        C364   1.404       .  A
C363        H366   1.081       .  S
C364        C365   1.378       .  A
C364        C712   1.497       .  S
C365        H367   1.081       .  S
Cu368       N371   2.140       .  S
Cu369       N379   2.040       .  S
Cu370       N372   2.041       .  S
Cu370       N378   2.041       .  S
N371        N372   1.322       .  A
N371        C375   1.358       .  A
N372        C373   1.337       .  A
C373        C374   1.379       .  A
C373        H376   1.081       .  S
C374        C375   1.404       .  A
C374        C582   1.497       .  S
C375        H377   1.081       .  S
N378        N379   1.317       .  A
N378        C382   1.340       .  A
N379        C380   1.340       .  A
C380        C381   1.379       .  A
C380        H383   1.082       .  S
C381        C382   1.379       .  A
C381        C821   1.460       .  S
C382        H384   1.082       .  S
N385        N386   1.323       .  A
N385        C389   1.335       .  A
N385       Cu393   2.032       .  S
N386        C387   1.358       .  A
N386       Cu392   2.140       .  S
C387        C388   1.402       .  A
C387        H390   1.082       .  S
C388        C389   1.374       .  A
C388        C435   1.489       .  S
C389        H391   1.082       .  S
Cu392       N395   2.140   1_556  S
Cu393       N403   2.031       .  S
Cu394       N396   2.035       .  S
Cu394       N402   2.034       .  S
N395        N396   1.324       .  A
N395        C399   1.358       .  A
N396        C397   1.335       .  A
C397        C398   1.374       .  A
C397        H400   1.082       .  S
C398        C399   1.401       .  A
C398        C707   1.489       .  S
C399        H401   1.082       .  S
N402        N403   1.312   1_554  A
N402        C406   1.338       .  A
N403        C404   1.339       .  A
C404        C405   1.385       .  A
C404        H407   1.073       .  S
C405        C406   1.385   1_556  A
C405        C898   1.473       .  S
C406        H408   1.080       .  S
N409        N410   1.324       .  A
N409        C413   1.335       .  A
N409       Cu417   2.035       .  S
N410        C411   1.359       .  A
N410       Cu416   2.145       .  S
C411        C412   1.403       .  A
C411        H414   1.082       .  S
C412        C413   1.375       .  A
C412        C433   1.492       .  S
C413        H415   1.082       .  S
Cu416       N419   2.144       .  S
Cu417       N427   2.034       .  S
Cu418       N420   2.026       .  S
Cu418       N426   2.025       .  S
N419        N420   1.322       .  A
N419        C423   1.359       .  A
N420        C421   1.334       .  A
C421        C422   1.373       .  A
C421        H424   1.082       .  S
C422        C423   1.404       .  A
C422        C468   1.490       .  S
C423        H425   1.082       .  S
N426        N427   1.313       .  A
N426        C430   1.338       .  A
N427        C428   1.338       .  A
C428        C429   1.384       .  A
C428        H431   1.082       .  S
C429        C430   1.382       .  A
C429        C805   1.467       .  S
C430        H432   1.078       .  S
C433        C434   1.412       .  A
C433        C438   1.404       .  A
C434        C435   1.402       .  A
C434        H439   1.082       .  S
C435        C436   1.412       .  A
C436        C437   1.404       .  A
C436        H440   1.082       .  S
C437        C438   1.414       .  A
C437        C592   1.494       .  S
C438        H441   1.081       .  S
N442        N443   1.323       .  A
N442        C446   1.336       .  A
N442       Cu450   2.040       .  S
N443        C444   1.358       .  A
N443       Cu449   2.139       .  S
C444        C445   1.403       .  A
C444        H447   1.081       .  S
C445        C446   1.377       .  A
C445        C466   1.495       .  S
C446        H448   1.081       .  S
Cu449       N452   2.138       .  S
Cu450       N460   2.039       .  S
Cu451       N453   2.036       .  S
Cu451       N459   2.036       .  S
N452        N453   1.322       .  A
N452        C456   1.358       .  A
N453        C454   1.336       .  A
C454        C455   1.377       .  A
C454        H457   1.081       .  S
C455        C456   1.403       .  A
C455        C714   1.494       .  S
C456        H458   1.082       .  S
N459        N460   1.316       .  A
N459        C463   1.339       .  A
N460        C461   1.341       .  A
C461        C462   1.377       .  A
C461        H464   1.082       .  S
C462        C463   1.376       .  A
C462        C741   1.454       .  S
C463        H465   1.082       .  S
C466        C467   1.404       .  A
C466        C471   1.413       .  A
C467        C468   1.413       .  A
C467        H472   1.082       .  S
C468        C469   1.402       .  A
C469        C470   1.412       .  A
C469        H473   1.081       .  S
C470        C471   1.404       .  A
C470        C650   1.494       .  S
C471        H474   1.080       .  S
N475        N476   1.322       .  A
N475        C479   1.338       .  A
N475       Cu483   2.046       .  S
N476        C477   1.357       .  A
N476       Cu482   2.132       .  S
C477        C478   1.402       .  A
C477        H480   1.081       .  S
C478        C479   1.381       .  A
C478        C703   1.498       .  S
C479        H481   1.080       .  S
Cu482       N485   2.132       .  S
Cu483       N493   2.046       .  S
Cu484       N486   2.045       .  S
Cu484       N492   2.045       .  S
N485        N486   1.322       .  A
N485        C489   1.356       .  A
N486        C487   1.338       .  A
C487        C488   1.380       .  A
C487        H490   1.081       .  S
C488        C489   1.402       .  A
C488        C716   1.497       .  S
C489        H491   1.081       .  S
N492        N493   1.317       .  A
N492        C496   1.340       .  A
N493        C494   1.341       .  A
C494        C495   1.381       .  A
C494        H497   1.081       .  S
C495        C496   1.380       .  A
C495        C789   1.465       .  S
C496        H498   1.082       .  S
N499        N500   1.323       .  A
N499        C503   1.336       .  A
N499       Cu507   2.038       .  S
N500        C501   1.358       .  A
N500       Cu506   2.139       .  S
C501        C502   1.402       .  A
C501        H504   1.082       .  S
C502        C503   1.377       .  A
C502        C584   1.493   1_565  S
C503        H505   1.081       .  S
Cu506       N509   2.139       .  S
Cu507       N517   2.037       .  S
Cu508       N510   2.037       .  S
Cu508       N516   2.036       .  S
N509        N510   1.323       .  A
N509        C513   1.358       .  A
N510        C511   1.336       .  A
C511        C512   1.377       .  A
C511        H514   1.081       .  S
C512        C513   1.403       .  A
C512        C573   1.494       .  S
C513        H515   1.082       .  S
N516        N517   1.314       .  A
N516        C520   1.340       .  A
N517        C518   1.338       .  A
C518        C519   1.383       .  A
C518        H521   1.082       .  S
C519        C520   1.384       .  A
C519        C757   1.470       .  S
C520        H522   1.078       .  S
N523        N524   1.323       .  A
N523        C527   1.337       .  A
N523       Cu531   2.040       .  S
N524        C525   1.358       .  A
N524       Cu530   2.144       .  S
C525        C526   1.403       .  A
C525        H528   1.081       .  S
C526        C527   1.377       .  A
C526        C571   1.495       .  S
C527        H529   1.081       .  S
Cu530       N533   2.144       .  S
Cu531       N541   2.040       .  S
Cu532       N534   2.035       .  S
Cu532       N540   2.036       .  S
N533        N534   1.322       .  A
N533        C537   1.358       .  A
N534        C535   1.337       .  A
C535        C536   1.376       .  A
C535        H538   1.081       .  S
C536        C537   1.404       .  A
C536        C705   1.495       .  S
C537        H539   1.081       .  S
N540        N541   1.314       .  A
N540        C544   1.339       .  A
N541        C542   1.339       .  A
C542        C543   1.384       .  A
C542        H545   1.082       .  S
C543        C544   1.383       .  A
C543        C725   1.470       .  S
C544        H546   1.078       .  S
N547        N548   1.322       .  A
N547        C551   1.334       .  A
N547       Cu555   2.030       .  S
N548        C549   1.358       .  A
N548       Cu554   2.140       .  S
C549        C550   1.403       .  A
C549        H552   1.082       .  S
C550        C551   1.374       .  A
C550        C694   1.491       .  S
C551        H553   1.081       .  S
Cu554       N557   2.140   1_556  S
Cu555       N565   2.030       .  S
Cu556       N558   2.038       .  S
Cu556       N564   2.037       .  S
N557        N558   1.323       .  A
N557        C561   1.358       .  A
N558        C559   1.336       .  A
C559        C560   1.375       .  A
C559        H562   1.081       .  S
C560        C561   1.402       .  A
C560        C575   1.492       .  S
C561        H563   1.082       .  S
N564        N565   1.313   1_554  A
N564        C568   1.339       .  A
N565        C566   1.339       .  A
C566        C567   1.383       .  A
C566        H569   1.077       .  S
C567        C568   1.384   1_556  A
C567        C869   1.470       .  S
C568        H570   1.081       .  S
C571        C572   1.414       .  A
C571        C576   1.404       .  A
C572        C573   1.405       .  A
C572        H577   1.081       .  S
C573        C574   1.413       .  A
C574        C575   1.402       .  A
C574        H578   1.081       .  S
C575        C576   1.413       .  A
C576        H579   1.082       .  S
C580        C581   1.413       .  A
C580        C585   1.402       .  A
C580        C616   1.491       .  S
C581        C582   1.405       .  A
C581        H586   1.082       .  S
C582        C583   1.415       .  A
C583        C584   1.405       .  A
C583        H587   1.081       .  S
C584        C585   1.412       .  A
C585        H588   1.082   1_545  S
N589        N590   1.322       .  A
N589        C593   1.336       .  A
N589       Cu597   2.034       .  S
N590        C591   1.358       .  A
N590       Cu596   2.143   1_455  S
C591        C592   1.404       .  A
C591        H594   1.082       .  S
C592        C593   1.376       .  A
C593        H595   1.081       .  S
Cu596       N599   2.144       .  S
Cu597       N607   2.033       .  S
Cu598       N600   2.035       .  S
Cu598       N606   2.034       .  S
N599        N600   1.323       .  A
N599        C603   1.358       .  A
N600        C601   1.336       .  A
C601        C602   1.376       .  A
C601        H604   1.081       .  S
C602        C603   1.404       .  A
C602        C696   1.495       .  S
C603        H605   1.081       .  S
N606        N607   1.316   1_655  A
N606        C610   1.340       .  A
N607        C608   1.339       .  A
C608        C609   1.376       .  A
C608        H611   1.082       .  S
C609        C610   1.377   1_455  A
C609        C837   1.452   1_455  S
C610        H612   1.082       .  S
N613        N614   1.323       .  A
N613        C617   1.335       .  A
N613       Cu621   2.029       .  S
N614        C615   1.359       .  A
N614       Cu620   2.146       .  S
C615        C616   1.404       .  A
C615        H618   1.082       .  S
C616        C617   1.374       .  A
C617        H619   1.082       .  S
Cu620       N623   2.146       .  S
Cu621       N631   2.029       .  S
Cu622       N624   2.036       .  S
Cu622       N630   2.035       .  S
N623        N624   1.324       .  A
N623        C627   1.358       .  A
N624        C625   1.336       .  A
C625        C626   1.375       .  A
C625        H628   1.081       .  S
C626        C627   1.403       .  A
C626        C685   1.493       .  S
C627        H629   1.082       .  S
N630        N631   1.313       .  A
N630        C634   1.338       .  A
N631        C632   1.339       .  A
C632        C633   1.383       .  A
C632        H635   1.077       .  S
C633        C634   1.384       .  A
C633        C853   1.469       .  S
C634        H636   1.081       .  S
N637        N638   1.323       .  A
N637        C641   1.337       .  A
N637       Cu645   2.042       .  S
N638        C639   1.357       .  A
N638       Cu644   2.135       .  S
C639        C640   1.402       .  A
C639        H642   1.081       .  S
C640        C641   1.379       .  A
C640        C689   1.495       .  S
C641        H643   1.081       .  S
Cu644       N647   2.134   1_655  S
Cu645       N655   2.042       .  S
Cu646       N648   2.038       .  S
Cu646       N654   2.038       .  S
N647        N648   1.322       .  A
N647        C651   1.356       .  A
N648        C649   1.337       .  A
C649        C650   1.378       .  A
C649        H652   1.081       .  S
C650        C651   1.402       .  A
C651        H653   1.081       .  S
N654        N655   1.317   1_455  A
N654        C658   1.339       .  A
N655        C656   1.340       .  A
C656        C657   1.379       .  A
C656        H659   1.082       .  S
C657        C658   1.378   1_655  A
C657        C773   1.459       .  S
C658        H660   1.082       .  S
N661        N662   1.323       .  A
N661        C665   1.337       .  A
N661       Cu669   2.041       .  S
N662        C663   1.357       .  A
N662       Cu668   2.137       .  S
C663        C664   1.402       .  A
C663        H666   1.082       .  S
C664        C665   1.378       .  A
C664        C698   1.494       .  S
C665        H667   1.081       .  S
Cu668       N671   2.137       .  S
Cu669       N679   2.041       .  S
Cu670       N672   2.035       .  S
Cu670       N678   2.036       .  S
N671        N672   1.322       .  A
N671        C675   1.357       .  A
N672        C673   1.336       .  A
C673        C674   1.377       .  A
C673        H676   1.081       .  S
C674        C675   1.403       .  A
C674        C687   1.495   1_565  S
C675        H677   1.082       .  S
N678        N679   1.315       .  A
N678        C682   1.339       .  A
N679        C680   1.339       .  A
C680        C681   1.383       .  A
C680        H683   1.082       .  S
C681        C682   1.383       .  A
C681        C882   1.470       .  S
C682        H684   1.079       .  S
C685        C686   1.402       .  A
C685        C690   1.413       .  A
C686        C687   1.413       .  A
C686        H691   1.081   1_545  S
C687        C688   1.405       .  A
C688        C689   1.413       .  A
C688        H692   1.080       .  S
C689        C690   1.405       .  A
C690        H693   1.081       .  S
C694        C695   1.412       .  A
C694        C699   1.402       .  A
C695        C696   1.403       .  A
C695        H700   1.081       .  S
C696        C697   1.414       .  A
C697        C698   1.405       .  A
C697        H701   1.081       .  S
C698        C699   1.413       .  A
C699        H702   1.081       .  S
C703        C704   1.407       .  A
C703        C708   1.413       .  A
C704        C705   1.415       .  A
C704        H709   1.081       .  S
C705        C706   1.403       .  A
C706        C707   1.411       .  A
C706        H710   1.082       .  S
C707        C708   1.402       .  A
C708        H711   1.080       .  S
C712        C713   1.404       .  A
C712        C717   1.414       .  A
C713        C714   1.413       .  A
C713        H718   1.081       .  S
C714        C715   1.404       .  A
C715        C716   1.413       .  A
C715        H719   1.080       .  S
C716        C717   1.406       .  A
C717        H720   1.080       .  S
C721        C722   1.399       .  A
C721        C726   1.398       .  A
C721        H728   1.084       .  S
C722        C723   1.408       .  A
C723        C724   1.397       .  A
C723        C730   1.508       .  S
C724        C725   1.404       .  A
C724        H729   1.084       .  S
C725        C726   1.416       .  A
C726        C727   1.508       .  S
C727        H731   1.111       .  S
C727        H732   1.110       .  S
C727        H733   1.107       .  S
C730        H734   1.111       .  S
C730        H735   1.108       .  S
C730        H736   1.111       .  S
C737        C738   1.407       .  A
C737        C742   1.395       .  A
C737        H744   1.083       .  S
C738        C739   1.420       .  A
C739        C740   1.399       .  A
C739        C746   1.507       .  S
C740        C741   1.395       .  A
C740        H745   1.085       .  S
C741        C742   1.403       .  A
C742        C743   1.507       .  S
C743        H747   1.111       .  S
C743        H748   1.110       .  S
C743        H749   1.111       .  S
C746        H750   1.107       .  S
C746        H751   1.110   1_545  S
C746        H752   1.111       .  S
C753        C754   1.398       .  A
C753        C758   1.398       .  A
C753        H760   1.084       .  S
C754        C755   1.408       .  A
C755        C756   1.396       .  A
C755        C762   1.508       .  S
C756        C757   1.404       .  A
C756        H761   1.084       .  S
C757        C758   1.416       .  A
C758        C759   1.508       .  S
C759        H763   1.111       .  S
C759        H764   1.110       .  S
C759        H765   1.107       .  S
C762        H766   1.111       .  S
C762        H767   1.108       .  S
C762        H768   1.111       .  S
C769        C770   1.404   1_655  A
C769        C774   1.397       .  A
C769        H776   1.084       .  S
C770        C771   1.416       .  A
C771        C772   1.398       .  A
C771        C778   1.508       .  S
C772        C773   1.398   1_455  A
C772        H777   1.085       .  S
C773        C774   1.408       .  A
C774        C775   1.508       .  S
C775        H779   1.111       .  S
C775        H780   1.108       .  S
C775        H781   1.111       .  S
C778        H782   1.107       .  S
C778        H783   1.110       .  S
C778        H784   1.111       .  S
C785        C786   1.403       .  A
C785        C790   1.398       .  A
C785        H792   1.084       .  S
C786        C787   1.414       .  A
C787        C788   1.398       .  A
C787        C794   1.508       .  S
C788        C789   1.400       .  A
C788        H793   1.084       .  S
C789        C790   1.411       .  A
C790        C791   1.508       .  S
C791        H795   1.111       .  S
C791        H796   1.108       .  S
C791        H797   1.110       .  S
C794        H798   1.107       .  S
C794        H799   1.110       .  S
C794        H800   1.111       .  S
C801        C802   1.397       .  A
C801        C806   1.397       .  A
C801        H808   1.085       .  S
C802        C803   1.406       .  A
C803        C804   1.395       .  A
C803        C810   1.507       .  S
C804        C805   1.404       .  A
C804        H809   1.084       .  S
C805        C806   1.416       .  A
C806        C807   1.508       .  S
C807        H811   1.111       .  S
C807        H812   1.110       .  S
C807        H813   1.107       .  S
C810        H814   1.111       .  S
C810        H815   1.109       .  S
C810        H816   1.111       .  S
C817        C818   1.404       .  A
C817        C822   1.397       .  A
C817        H824   1.084       .  S
C818        C819   1.416       .  A
C819        C820   1.398       .  A
C819        C826   1.508       .  S
C820        C821   1.398       .  A
C820        H825   1.085       .  S
C821        C822   1.408       .  A
C822        C823   1.508       .  S
C823        H827   1.111       .  S
C823        H828   1.108       .  S
C823        H829   1.111       .  S
C826        H830   1.107       .  S
C826        H831   1.110       .  S
C826        H832   1.111       .  S
C833        C834   1.405   1_455  A
C833        C838   1.395       .  A
C833        H840   1.083       .  S
C834        C835   1.418       .  A
C835        C836   1.398       .  A
C835        C842   1.508       .  S
C836        C837   1.396       .  A
C836        H841   1.085       .  S
C837        C838   1.404   1_655  A
C838        C839   1.507       .  S
C839        H843   1.111       .  S
C839        H844   1.110       .  S
C839        H845   1.111       .  S
C842        H846   1.107       .  S
C842        H847   1.110       .  S
C842        H848   1.111       .  S
C849        C850   1.397       .  A
C849        C854   1.398       .  A
C849        H856   1.085       .  S
C850        C851   1.406       .  A
C851        C852   1.396       .  A
C851        C858   1.507       .  S
C852        C853   1.404       .  A
C852        H857   1.084       .  S
C853        C854   1.417       .  A
C854        C855   1.508       .  S
C855        H859   1.111       .  S
C855        H860   1.110       .  S
C855        H861   1.107       .  S
C858        H862   1.111       .  S
C858        H863   1.109       .  S
C858        H864   1.111       .  S
C865        C866   1.398   1_554  A
C865        C870   1.398       .  A
C865        H872   1.085       .  S
C866        C867   1.407       .  A
C867        C868   1.396       .  A
C867        C874   1.508       .  S
C868        C869   1.404       .  A
C868        H873   1.084       .  S
C869        C870   1.416   1_556  A
C870        C871   1.508       .  S
C871        H875   1.111       .  S
C871        H876   1.110       .  S
C871        H877   1.107   1_554  S
C874        H878   1.111   1_556  S
C874        H879   1.109       .  S
C874        H880   1.111       .  S
C881        C882   1.404       .  A
C881        C886   1.397       .  A
C881        H888   1.084       .  S
C882        C883   1.415       .  A
C883        C884   1.398       .  A
C883        C890   1.508       .  S
C884        C885   1.399       .  A
C884        H889   1.085       .  S
C885        C886   1.409       .  A
C886        C887   1.508       .  S
C887        H891   1.111       .  S
C887        H892   1.111       .  S
C887        H893   1.108       .  S
C890        H894   1.110       .  S
C890        H895   1.107       .  S
C890        H896   1.111       .  S
C897        C898   1.406   1_554  A
C897        C902   1.395       .  A
C897        H904   1.083       .  S
C898        C899   1.418       .  A
C899        C900   1.399       .  A
C899        C906   1.507       .  S
C900        C901   1.396   1_556  A
C900        H905   1.084       .  S
C901        C902   1.404       .  A
C902        C903   1.507       .  S
C903        H907   1.111       .  S
C903        H908   1.111       .  S
C903        H909   1.110   1_554  S
C906        H910   1.110   1_556  S
C906        H911   1.107       .  S
C906        H912   1.111       .  S
