geometry optimzed in LAMMPS
_audit_creation_date              2020-11-30 
_audit_creation_method            'lammps2cif' 
_symmetry_space_group_name_H-M    'P1' 
_symmetry_Int_Tables_number       1 
_symmetry_cell_setting            triclinic 
loop_ 
_symmetry_equiv_pos_as_xyz 
  x,y,z 
_cell_length_a                    25.65820548 
_cell_length_b                    25.396239080797592 
_cell_length_c                    26.357728869817464 
_cell_angle_alpha                 89.6613871389955 
_cell_angle_beta                  89.65669278940048 
_cell_angle_gamma                 89.47067404029252 
loop_ 
_atom_site_label 
_atom_site_type_symbol 
_atom_site_fract_x 
_atom_site_fract_y 
_atom_site_fract_z 
_atom_site_charge 
C1          C  0.86187903  0.86423858  0.86663735    -0.02300
C2          C  0.97884225  0.98257850  0.47573630     0.42700
N3          N  0.95726506  0.93064473  0.41896663     0.01600
C4          C  0.75615687  0.93438767  0.25809290    -0.06300
H5          H  0.69643780  0.91100101  0.45237644     0.07100
C6          C  0.80479774  0.73387305  0.43627137    -0.06700
Co7        Co  0.86486902  0.97016596  0.36478685     0.74200
N8          N  0.76912380  0.92594637  0.41318865    -0.25800
Co9        Co  0.77530207  0.86922280  0.35432838     0.74100
C10         C  0.75417252  0.74907602  0.45604442     0.42800
N11         N  0.93306405  0.77713135  0.40983087     0.01200
N12         N  0.77778728  0.80819749  0.40515301     0.01300
N13         N  0.81161131  0.00201773  0.26965401    -0.46700
H14         H  0.90809276  0.03719153  0.46308560     0.07000
N15         N  0.80386583  0.96360071  0.41776341     0.01600
N16         N  0.77972906  0.81199562  0.29636373     0.01300
C17         C  0.75808991  0.75462455  0.23983115     0.42900
N18         N  0.96714021  0.81556197  0.41224288    -0.25300
C19         C  0.93613251  0.01584811  0.27739804    -0.06200
N20         N  0.99430464  0.93921157  0.45169195    -0.46400
N21         N  0.74208568  0.79881600  0.26435475    -0.46600
C22         C  0.98632129  0.00079854  0.25421707     0.42700
N23         N  0.81249673  0.96849232  0.30775734     0.01600
N24         N  0.96755568  0.82860621  0.30372491    -0.25300
N25         N  0.91960250  0.96631641  0.42018031    -0.25800
N26         N  0.93353606  0.79059448  0.29891740     0.01200
H27         H  0.03324603  0.85439708  0.25938829     0.07100
H28         H  0.83144664  0.70474856  0.25587026     0.07100
N29         N  0.77991853  0.92916937  0.30237780    -0.25900
N30         N  0.81611676  0.77299893  0.40438816    -0.25500
N31         N  0.96385057  0.94276665  0.31047996     0.01600
C32         C  0.74627479  0.98217209  0.47572990     0.43000
C33         C  0.00304142  0.80312526  0.44736805    -0.06700
N34         N  0.81868567  0.77773607  0.29598038    -0.25500
H35         H  0.82734518  0.69812521  0.44186213     0.07100
N36         N  0.79160677  0.99789727  0.45403750    -0.46700
H37         H  0.03700288  0.82621666  0.45612761     0.07100
C38         C  0.98264978  0.78580401  0.23424735     0.42800
C39         C  0.92951230  0.00103826  0.45607640    -0.06200
Co40       Co  0.96478512  0.87924178  0.36161668     0.73800
N41         N  0.94405221  0.73799806  0.44204848    -0.46400
C42         C  0.77780709  0.98221572  0.23666564     0.43100
N43         N  0.00104752  0.95542061  0.27749204    -0.46400
Co44       Co  0.87588962  0.77841958  0.35237598     0.73900
C45         C  0.80865650  0.74029682  0.26150464    -0.06700
C46         C  0.73122884  0.93436357  0.44806890    -0.06300
N47         N  0.92559511  0.97761434  0.31156265    -0.25800
N48         N  0.73940758  0.79520571  0.43578677    -0.46600
H49         H  0.72715711  0.90820954  0.24298659     0.07100
C50         C  0.00049220  0.82843905  0.26486386    -0.06700
Cl51       Cl  0.87001159  0.87407516  0.35867987    -0.49700
C52         C  0.98765822  0.75173175  0.46758682     0.42800
H53         H  0.91278751  0.05097658  0.27154007     0.07000
N54         N  0.94141441  0.76338312  0.25736067    -0.46400
C55         C  0.75624288  0.47768801  0.98685741     0.42700
N56         N  0.77701844  0.41749241  0.93237474     0.01600
C57         C  0.01463984  0.28198971  0.92924031    -0.06300
H58         H  0.03104065  0.47606823  0.90233579     0.07100
C59         C  0.93263207  0.45990829  0.73177034    -0.06700
Co60       Co  0.87848678  0.36622173  0.95861010     0.74200
N61         N  0.96337310  0.42837551  0.91461943    -0.25800
Co62       Co  0.96632595  0.37154055  0.86074672     0.74100
C63         C  0.98253803  0.48376730  0.74494268     0.42800
N64         N  0.80693753  0.42340540  0.78311159     0.01200
N65         N  0.96100107  0.42688252  0.80223986     0.01300
N66         N  0.95550867  0.28025631  0.99293366    -0.46700
H67         H  0.83161071  0.46316402  0.03176194     0.07000
N68         N  0.92857880  0.42603935  0.95152883     0.01600
N69         N  0.96136365  0.31337053  0.80940773     0.01300
C70         C  0.97099520  0.23795823  0.77769201     0.42900
N71         N  0.77231335  0.42005818  0.82027927    -0.25300
C72         C  0.82865840  0.26656295  0.99228802    -0.06200
N73         N  0.73988000  0.45221865  0.94470827    -0.46400
N74         N  0.99146133  0.27147383  0.81056592    -0.46600
C75         C  0.78493412  0.23628096  0.97701436     0.42700
N76         N  0.94118619  0.31349573  0.95638612     0.01600
N77         N  0.77311438  0.30592162  0.81373232    -0.25300
N78         N  0.81638868  0.41859122  0.96408960    -0.25800
N79         N  0.80629908  0.30885248  0.77546845     0.01200
H80         H  0.70095238  0.26384496  0.82362415     0.07100
H81         H  0.89868178  0.24797467  0.72708698     0.07100
N82         N  0.97519835  0.31573479  0.91897080    -0.25900
N83         N  0.92263614  0.42502557  0.76930209    -0.25500
N84         N  0.78970148  0.30227638  0.92766932     0.01600
C85         C  0.97721936  0.48746093  0.97166254     0.43000
C86         C  0.73995987  0.46126628  0.81778312    -0.06700
N87         N  0.92253806  0.30994640  0.77700062    -0.25500
H88         H  0.90989010  0.46501872  0.69765070     0.07100
N89         N  0.93564493  0.46081379  0.98704435    -0.46700
H90         H  0.70755746  0.46927840  0.84310026     0.07100
C91         C  0.74857808  0.25276696  0.74970041     0.42800
C92         C  0.80677987  0.45485580  0.99983517    -0.06200
Co93       Co  0.77631834  0.36087404  0.87377645     0.73800
N94         N  0.80022633  0.46571458  0.75481876    -0.46400
C95         C  0.00099375  0.25784433  0.97805121     0.43100
N96         N  0.76164399  0.26028765  0.93713978    -0.46400
Co97       Co  0.86465852  0.36692256  0.77452968     0.73900
C98         C  0.92557083  0.26313820  0.75473776    -0.06700
C99         C  0.99603323  0.46722082  0.92369670    -0.06300
N100        N  0.82847980  0.30643929  0.95989728    -0.25800
N101        N  0.99797438  0.46054891  0.78866205    -0.46600
H102        H  0.04975629  0.27712151  0.90679488     0.07100
C103        C  0.73569650  0.27122739  0.80137100    -0.06700
Cl104      Cl  0.87126361  0.36643178  0.86672103    -0.49700
C105        C  0.75942336  0.49175982  0.77526644     0.42800
H106        H  0.85472623  0.26119720  0.02402896     0.07000
N107        N  0.79276900  0.27860981  0.73657328    -0.46400
C108        C  0.49348510  0.97287462  0.96351691     0.42700
N109        N  0.43241423  0.95388747  0.91492808     0.01600
C110        C  0.26250057  0.75444861  0.92992602    -0.06300
H111        H  0.45615545  0.68688284  0.90959296     0.07100
C112        C  0.46339115  0.80473398  0.74683734    -0.06700
Co113      Co  0.37507198  0.86341186  0.95617463     0.74200
N114        N  0.42090097  0.76336418  0.91899534    -0.25800
Co115      Co  0.36239654  0.76903854  0.86367818     0.74100
C116        C  0.48968581  0.75924941  0.76894951     0.42800
N117        N  0.42039545  0.92636631  0.76796100     0.01200
N118        N  0.41795205  0.77077711  0.80756645     0.01300
N119        N  0.27773662  0.81484035  0.99089586    -0.46700
H120        H  0.47915483  0.90181560  0.01568090     0.07000
N121        N  0.42670806  0.80041874  0.95305513     0.01600
N122        N  0.30461757  0.77157072  0.80735860     0.01300
C123        C  0.24648539  0.74898773  0.75245442     0.42900
N124        N  0.42352120  0.96178425  0.80404782    -0.25300
C125        C  0.28871662  0.93706252  0.99979339    -0.06200
N126        N  0.46784505  0.98974951  0.92244401    -0.46400
N127        N  0.27075287  0.73397765  0.79594170    -0.46600
C128        C  0.26427053  0.98702265  0.98503625     0.42700
N129        N  0.31533527  0.81268974  0.95713054     0.01600
N130        N  0.31105987  0.96093230  0.81792084    -0.25300
N131        N  0.43348577  0.91590231  0.94920714    -0.25800
N132        N  0.30638804  0.92560100  0.78187787     0.01200
H133        H  0.26112111  0.02268893  0.84601033     0.07100
H134        H  0.26394292  0.82186176  0.70311286     0.07100
N135        N  0.30805400  0.77751877  0.92128485    -0.25900
N136        N  0.41926090  0.80907747  0.77339202    -0.25500
N137        N  0.32072928  0.96353437  0.92813964     0.01600
C138        C  0.48049922  0.73942622  0.97697014     0.43000
C139        C  0.45954902  0.99752112  0.79055499    -0.06700
N140        N  0.30539921  0.80955056  0.77312838    -0.25500
H141        H  0.47594890  0.83061323  0.71651273     0.07100
N142        N  0.46124789  0.78766982  0.98834069    -0.46700
H143        H  0.46877661  0.03267614  0.81151805     0.07100
C144        C  0.23558780  0.96979721  0.78112705     0.42800
C145        C  0.47214831  0.92371185  0.98100640    -0.06200
Co146      Co  0.37216367  0.96135482  0.86599755     0.73800
N147        N  0.45228169  0.93666734  0.72910590    -0.46400
C148        C  0.24273606  0.78022540  0.97562277     0.43100
N149        N  0.28700710  0.00146991  0.94056474    -0.46400
Co150      Co  0.36277657  0.86771498  0.77226917     0.73900
C151        C  0.26965478  0.79927166  0.73757911    -0.06700
C152        C  0.45367163  0.72336287  0.93035046    -0.06300
N153        N  0.32254226  0.92574476  0.96231301    -0.25800
N154        N  0.45899046  0.73946629  0.80552867    -0.46600
H155        H  0.24570878  0.72338025  0.90756647     0.07100
C156        C  0.26831080  0.99040536  0.82028459    -0.06700
Cl157      Cl  0.36820269  0.86527583  0.86436292    -0.49700
C158        C  0.47942015  0.98042119  0.74114815     0.42800
H159        H  0.28379989  0.91406867  0.03407268     0.07000
N160        N  0.26141944  0.92981133  0.75834886    -0.46400
C161        C  0.36689028  0.37482629  0.87014223    -0.02300
C162        C  0.37011858  0.87456146  0.37084608    -0.02300
C163        C  0.87386770  0.36694967  0.36823143    -0.02300
C164        C  0.99624571  0.98907362  0.72456922     0.42700
N165        N  0.02134503  0.04954750  0.67180933     0.01600
C166        C  0.25994534  0.05248361  0.54403769    -0.06300
H167        H  0.25719600  0.07805556  0.74772309     0.07100
C168        C  0.17757797  0.24924877  0.72678504    -0.06700
Co169      Co  0.12187251  0.02135048  0.62090681     0.74200
N170        N  0.20493579  0.05994344  0.68710295    -0.25800
Co171      Co  0.21306455  0.11999399  0.63543654     0.74100
C172        C  0.22626139  0.23355195  0.75189593     0.42800
N173        N  0.05428142  0.20191535  0.68429596     0.01200
N174        N  0.20679260  0.17705761  0.69346497     0.01300
N175        N  0.19715051  0.99170206  0.53559740    -0.46700
H176        H  0.07133848  0.94045568  0.70901014     0.07000
N177        N  0.17178613  0.02140262  0.68016201     0.01600
N178        N  0.21404615  0.18111410  0.58400690     0.01300
C179        C  0.23874943  0.23756739  0.53053345     0.42900
N180        N  0.01988797  0.16431125  0.67884998    -0.25300
C181        C  0.06136641  0.99309133  0.52589403    -0.06200
N182        N  0.98280712  0.03592479  0.70305426    -0.46400
N183        N  0.25281568  0.19215752  0.55288316    -0.46600
C184        C  0.01332454  0.01271943  0.50426022     0.42700
N185        N  0.18470980  0.02678155  0.57089972     0.01600
N186        N  0.02400479  0.17694089  0.57022352    -0.25300
N187        N  0.05924098  0.01438837  0.67102078    -0.25800
N188        N  0.05820813  0.21521444  0.57299170     0.01200
H189        H  0.95590057  0.16504507  0.52446759     0.07100
H190        H  0.16557106  0.28940484  0.54152359     0.07100
N191        N  0.22065466  0.06298913  0.57695286    -0.25900
N192        N  0.16889006  0.21242362  0.69144696    -0.25500
N193        N  0.03242531  0.06257947  0.56362681     0.01600
C194        C  0.20505410  0.00483050  0.75151790     0.43000
C195        C  0.98671387  0.16434025  0.71754067    -0.06700
N196        N  0.17599681  0.21666459  0.58280584    -0.25500
H197        H  0.15472986  0.28488808  0.73161133     0.07100
N198        N  0.17145393  0.98673850  0.71736931    -0.46700
H199        H  0.95397415  0.13832264  0.72281351     0.07100
C200        C  0.00505465  0.23956094  0.51307673     0.42800
C201        C  0.04734958  0.97502724  0.70310814    -0.06200
Co202      Co  0.02352295  0.11359818  0.62102961     0.73800
N203        N  0.04661172  0.22847680  0.72626221    -0.46400
C204        C  0.24399255  0.00515927  0.51606849     0.43100
N205        N  0.99709823  0.05547437  0.52886028    -0.46400
Co206      Co  0.11391475  0.21297398  0.63264553     0.73900
C207        C  0.18816748  0.25417552  0.54949850    -0.06700
C208        C  0.22761009  0.05312187  0.73174543    -0.06300
N209        N  0.06975213  0.02658717  0.56324909    -0.25800
N210        N  0.24224489  0.18863641  0.72841454    -0.46600
H211        H  0.29604429  0.07399586  0.54128691     0.07100
C212        C  0.98939177  0.18856844  0.53380814    -0.06700
Cl213      Cl  0.11830961  0.11720423  0.62712953    -0.49700
C214        C  0.00505618  0.20619541  0.74889582     0.42800
H215        H  0.08278300  0.95693586  0.51889890     0.07000
N216        N  0.04799195  0.25390001  0.53977506    -0.46400
C217        C  0.21118834  0.75423588  0.01165614     0.42700
N218        N  0.20493707  0.68711889  0.05946318     0.01600
C219        C  0.99122850  0.53061380  0.05628275    -0.06300
H220        H  0.94486093  0.71678010  0.07588584     0.07100
C221        C  0.06266469  0.72902800  0.23015506    -0.06700
Co222      Co  0.11519500  0.62495611  0.02698901     0.74200
N223        N  0.01884197  0.67716477  0.06484677    -0.25800
Co224      Co  0.02491392  0.62082206  0.12291085     0.74100
C225        C  0.01742700  0.75383277  0.20642313     0.42800
N226        N  0.18300451  0.68348611  0.20971720     0.01200
N227        N  0.02860786  0.67873731  0.17452696     0.01300
N228        N  0.05264482  0.53615733  0.99364693    -0.46700
H229        H  0.14165814  0.73100931  0.96341574     0.07000
N230        N  0.05402876  0.67955060  0.02845653     0.01600
N231        N  0.02850224  0.56474931  0.18147887     0.01300
C232        C  0.00651434  0.50605547  0.23737319     0.42900
N233        N  0.21728410  0.68477971  0.17226325    -0.25300
C234        C  0.18494664  0.53177031  0.99003715    -0.06200
N235        N  0.23347985  0.72911957  0.05139712    -0.46400
N236        N  0.99192395  0.52993409  0.19356011    -0.46600
C237        C  0.23476113  0.50827156  0.00466725     0.42700
N238        N  0.06286018  0.56683535  0.03187952     0.01600
N239        N  0.21675993  0.57045725  0.16775639    -0.25300
N240        N  0.16671766  0.68378589  0.02664200    -0.25800
N241        N  0.18150388  0.56821314  0.20439337     0.01200
H242        H  0.27978825  0.51888153  0.14541103     0.07100
H243        H  0.07742337  0.52581184  0.28682895     0.07100
N244        N  0.02750062  0.56497592  0.06835423    -0.25900
N245        N  0.06671707  0.68240064  0.20762173    -0.25500
N246        N  0.21491261  0.57169936  0.05589595     0.01600
C247        C  0.99574343  0.73665892  0.00605066     0.43000
C248        C  0.25383761  0.72074897  0.18333514    -0.06700
N249        N  0.06582588  0.56696556  0.21555316    -0.25500
H250        H  0.08863036  0.74421247  0.25861804     0.07100
N251        N  0.04156362  0.71403061  0.99231560    -0.46700
H252        H  0.28876132  0.72803083  0.16131488     0.07100
C253        C  0.22629382  0.49806106  0.21241889     0.42800
C254        C  0.16735405  0.72451658  0.99525167    -0.06200
Co255      Co  0.21526326  0.62891052  0.11369054     0.73800
N256        N  0.19494475  0.71652592  0.24694046    -0.46400
C257        C  0.00844306  0.51288788  0.00698326     0.43100
N258        N  0.25175048  0.53621281  0.04496708    -0.46400
Co259      Co  0.12427853  0.62528112  0.21118349     0.73900
C260        C  0.05532214  0.53130409  0.25236186    -0.06700
C261        C  0.98032975  0.71161460  0.05403399    -0.06300
N262        N  0.17586484  0.57021286  0.02382077    -0.25800
N263        N  0.99797700  0.72023929  0.17308659    -0.46600
H264        H  0.95461730  0.52480667  0.07601763     0.07100
C265        C  0.24747925  0.52809269  0.17045336    -0.06700
Cl266      Cl  0.12000948  0.62482712  0.11887944    -0.49700
C267        C  0.23861714  0.74267893  0.23269299     0.42800
H268        H  0.16066722  0.52276329  0.95789045     0.07000
N269        N  0.18622274  0.52549916  0.23251128    -0.46400
C270        C  0.73621817  0.00166249  0.00184270     0.42700
N271        N  0.67501634  0.02483352  0.05365771     0.01600
C272        C  0.53867970  0.26304377  0.04714809    -0.06300
H273        H  0.74665032  0.26551300  0.08083174     0.07100
C274        C  0.71320170  0.18427308  0.24853374    -0.06700
Co275      Co  0.62253468  0.12493830  0.02243139     0.74200
N276        N  0.68586541  0.21058110  0.06356612    -0.25800
Co277      Co  0.62744951  0.21766589  0.11771954     0.74100
C278        C  0.73920802  0.23372522  0.23473441     0.42800
N279        N  0.67669037  0.05963411  0.20067731     0.01200
N280        N  0.68182192  0.21355471  0.17762094     0.01300
N281        N  0.53652448  0.20099705  0.98635265    -0.46700
H282        H  0.72203584  0.07451270  0.95152662     0.07000
N283        N  0.68143237  0.17553343  0.02723328     0.01600
N284        N  0.56810478  0.21539190  0.17055713     0.01300
C285        C  0.49595435  0.22897756  0.20818906     0.42900
N286        N  0.67477487  0.02469048  0.16404515    -0.25300
C287        C  0.53458770  0.05993395  0.98361591    -0.06200
N288        N  0.70901777  0.98653481  0.04345942    -0.46400
N289        N  0.52833140  0.24843738  0.17270181    -0.46600
C290        C  0.51522259  0.00887532  0.99739967     0.42700
N291        N  0.56975687  0.18794971  0.02293859     0.01600
N292        N  0.56223686  0.02399577  0.16862373    -0.25300
N293        N  0.67635703  0.06302136  0.01983873    -0.25800
N294        N  0.56232918  0.05845564  0.20571423     0.01200
H295        H  0.52055116  0.95251825  0.15601087     0.07100
H296        H  0.50604016  0.15587077  0.25925729     0.07100
N297        N  0.57239540  0.22385495  0.05868235    -0.25900
N298        N  0.67842244  0.17532272  0.21144168    -0.25500
N299        N  0.56315193  0.03300838  0.05647993     0.01600
C300        C  0.75469681  0.20874975  0.01296323     0.43000
C301        C  0.71729493  0.99476936  0.16485479    -0.06700
N302        N  0.56440870  0.17636113  0.20373927    -0.25500
H303        H  0.71700841  0.16092774  0.28273634     0.07100
N304        N  0.72121753  0.17359440  0.99606318    -0.46700
H305        H  0.72659985  0.96284477  0.13932647     0.07100
C306        C  0.50436135  0.00080234  0.22876750     0.42800
C307        C  0.71351860  0.05173132  0.98531244    -0.06200
Co308      Co  0.61833202  0.02568307  0.11095184     0.73800
N309        N  0.71965110  0.05526816  0.22736473    -0.46400
C310        C  0.51470056  0.24794423  0.99886019     0.43100
N311        N  0.53360845  0.99400793  0.04258648    -0.46400
Co312      Co  0.62025674  0.11738517  0.20710674     0.73900
C313        C  0.51978451  0.18162560  0.22931131    -0.06700
C314        C  0.73166749  0.23421806  0.05755455    -0.06300
N315        N  0.56505918  0.07119293  0.02233476    -0.25800
N316        N  0.71667513  0.24966240  0.19055999    -0.46600
H317        H  0.53381601  0.29901993  0.06846826     0.07100
C318        C  0.52688648  0.98669988  0.17920959    -0.06700
Cl319      Cl  0.62176469  0.12152247  0.11470579    -0.49700
C320        C  0.74705045  0.01563334  0.20600382     0.42800
H321        H  0.53353107  0.08056383  0.94759726     0.07000
N322        N  0.52870120  0.04590498  0.24247941    -0.46400
C323        C  0.62238408  0.61786173  0.11364639    -0.02300
C324        C  0.11363324  0.62286188  0.61327056    -0.02300
C325        C  0.25157166  0.48910611  0.48044156     0.42700
N326        N  0.30619748  0.46574132  0.42116189     0.01600
C327        C  0.30026778  0.23178215  0.28374987    -0.06300
H328        H  0.33898449  0.20956280  0.47553576     0.07100
C329        C  0.51031962  0.30670869  0.44529779    -0.06700
Co330      Co  0.27301818  0.36549579  0.37097824     0.74200
N331        N  0.32035482  0.27581220  0.42714469    -0.25800
Co332      Co  0.37336026  0.27371101  0.36803610     0.74100
C333        C  0.49657305  0.25807076  0.47203209     0.42800
N334        N  0.46169844  0.43229025  0.41002054     0.01200
N335        N  0.43665783  0.27776814  0.41783197     0.01300
N336        N  0.23449813  0.29144518  0.28663776    -0.46700
H337        H  0.20259712  0.41483076  0.46792693     0.07000
N338        N  0.28222148  0.31112533  0.42783270     0.01600
N339        N  0.42447390  0.27723925  0.30782501     0.01300
C340        C  0.46324304  0.26270526  0.23788239     0.42900
N341        N  0.42333955  0.46734087  0.41267212    -0.25300
C342        C  0.23778522  0.42244944  0.27415447    -0.06200
N343        N  0.29496236  0.50391288  0.45422427    -0.46400
N344        N  0.42763730  0.24326102  0.27034407    -0.46600
C345        C  0.25772891  0.46567937  0.24408369     0.42700
N346        N  0.27238486  0.30359681  0.31863521     0.01600
N347        N  0.41918883  0.46910582  0.30393092    -0.25300
N348        N  0.27218844  0.42717952  0.42334093    -0.25800
N349        N  0.45657123  0.43330798  0.30088151     0.01200
H350        H  0.40721431  0.54388548  0.26631258     0.07100
H351        H  0.51381527  0.33645677  0.24527260     0.07100
N352        N  0.31094003  0.26900409  0.31794647    -0.25900
N353        N  0.47097330  0.31579986  0.41266644    -0.25500
N354        N  0.30442449  0.45776873  0.30978353     0.01600
C355        C  0.26851506  0.26365610  0.49223915     0.43000
C356        C  0.43305030  0.50101820  0.44974454    -0.06700
N357        N  0.45726960  0.31655203  0.30261571    -0.25500
H358        H  0.54521775  0.33000667  0.44840308     0.07100
N359        N  0.24986943  0.30499796  0.46618411    -0.46700
H360        H  0.40924873  0.53459564  0.46042111     0.07100
C361        C  0.47884447  0.49239635  0.24567776     0.42800
C362        C  0.23657180  0.43824903  0.45938881    -0.06200
Co363      Co  0.36286275  0.46629799  0.36209114     0.73800
N364        N  0.49830353  0.43978994  0.44383388    -0.46400
C365        C  0.24950142  0.24660736  0.26281840     0.43100
N366        N  0.29825366  0.48657647  0.26863721    -0.46400
Co367      Co  0.46267900  0.37431985  0.35637738     0.73900
C368        C  0.48317483  0.31106124  0.25910626    -0.06700
C369        C  0.31496308  0.24365997  0.46698095    -0.06300
N370        N  0.26986133  0.41983489  0.31359439    -0.25800
N371        N  0.45083686  0.24201758  0.45227490    -0.46600
H372        H  0.32410174  0.19732911  0.27624918     0.07100
C373        C  0.42955825  0.50781949  0.27032487    -0.06700
Cl374      Cl  0.36805130  0.37004364  0.36467276    -0.49700
C375        C  0.48226892  0.48218345  0.46961541     0.42800
H376        H  0.20534662  0.39668308  0.26702679     0.07000
N377        N  0.49299254  0.44582903  0.26696259    -0.46400
C378        C  0.73834513  0.74235886  0.71883044     0.42700
N379        N  0.71502096  0.68362277  0.66506405     0.01600
C380        C  0.47974620  0.68217793  0.53343351    -0.06300
H381        H  0.47251252  0.65218905  0.73225185     0.07100
C382        C  0.55699739  0.48264451  0.71370663    -0.06700
Co383      Co  0.61584457  0.71320461  0.61251276     0.74200
N384        N  0.53008486  0.67179641  0.67587864    -0.25800
Co385      Co  0.52591301  0.61345100  0.62286023     0.74100
C386        C  0.50754855  0.49911349  0.73672241     0.42800
N387        N  0.68236030  0.53022193  0.67662683     0.01200
N388        N  0.52998427  0.55539052  0.67934860     0.01300
N389        N  0.54038355  0.74560199  0.52717560    -0.46700
H390        H  0.66405902  0.79186222  0.70311876     0.07000
N391        N  0.56310552  0.71097483  0.67111524     0.01600
N392        N  0.52890379  0.55476360  0.57022698     0.01300
C393        C  0.51056387  0.50497692  0.50983294     0.42900
N394        N  0.71693367  0.56812281  0.67297206    -0.25300
C395        C  0.67615565  0.74064614  0.51520374    -0.06200
N396        N  0.75251266  0.69619137  0.69718313    -0.46400
N397        N  0.49389185  0.54753241  0.53491029    -0.46600
C398        C  0.72338606  0.72080124  0.49163622     0.42700
N399        N  0.55396321  0.70915083  0.56113506     0.01600
N400        N  0.71799705  0.55839164  0.56329496    -0.25300
N401        N  0.67705853  0.71880834  0.66391050    -0.25800
N402        N  0.68389292  0.51996575  0.56531678     0.01200
H403        H  0.78818603  0.57037190  0.51960486     0.07100
H404        H  0.58259829  0.45180191  0.52221812     0.07100
N405        N  0.51905940  0.67169711  0.56583961    -0.25900
N406        N  0.56772085  0.51983749  0.67870765    -0.25500
N407        N  0.70833865  0.67405364  0.55603592     0.01600
C408        C  0.52301914  0.72587882  0.73999853     0.43000
C409        C  0.74760744  0.56670719  0.71348001    -0.06700
N410        N  0.56695093  0.51924668  0.56947903    -0.25500
H411        H  0.57903755  0.44665265  0.71964507     0.07100
N412        N  0.55924231  0.74526824  0.70823574    -0.46700
H413        H  0.77979482  0.59270194  0.72088300     0.07100
C414        C  0.73941562  0.49584734  0.50743633     0.42800
C415        C  0.68796177  0.75723929  0.69680924    -0.06200
Co416      Co  0.71573797  0.62095514  0.61422150     0.73800
N417        N  0.68746651  0.50238463  0.71860424    -0.46400
C418        C  0.49379176  0.73167036  0.50758002     0.43100
N419        N  0.74185493  0.67996563  0.51857318    -0.46400
Co420      Co  0.62558745  0.52085303  0.62240062     0.73900
C421        C  0.55861904  0.48556443  0.53193571    -0.06700
C422        C  0.50337178  0.67751618  0.71877991    -0.06300
N423        N  0.67007506  0.70920344  0.55520256    -0.25800
N424        N  0.49268582  0.54387949  0.71267020    -0.46600
H425        H  0.44469466  0.65917916  0.53024966     0.07100
C426        C  0.75423742  0.54688835  0.52805883    -0.06700
Cl427      Cl  0.62069084  0.61703414  0.61768574    -0.49700
C428        C  0.72721123  0.52397607  0.74395947     0.42800
H429        H  0.65230580  0.77464233  0.50584057     0.07000
N430        N  0.69549031  0.48142579  0.53286791    -0.46400
C431        C  0.61507767  0.11852428  0.61378373    -0.02300
C432        C  0.12804758  0.12118219  0.11494810    -0.02300
C433        C  0.24547131  0.18241107  0.19179237    -0.12000
C434        C  0.21895805  0.21676996  0.22448469     0.05000
C435        C  0.16431351  0.21975039  0.22119998    -0.07300
C436        C  0.13765739  0.18803725  0.18656562    -0.08100
C437        C  0.16360966  0.15405210  0.15178476    -0.02600
C438        C  0.21956368  0.15089388  0.15636996     0.04200
N439        N  0.25189115  0.11447832  0.12879145     0.66700
H440        H  0.28749820  0.17899543  0.19422354     0.15600
H441        H  0.09550003  0.19088170  0.18608880     0.15300
N442        N  0.13484594  0.25386182  0.25360479     0.74400
O443        O  0.28928150  0.13214415  0.10260875    -0.39100
O444        O  0.25424905  0.06711848  0.14325852    -0.39000
O445        O  0.11911599  0.29786097  0.23694040    -0.39700
O446        O  0.11703837  0.23647603  0.29509908    -0.39800
C447        C  0.52662592  0.23436901  0.55962656    -0.12000
C448        C  0.52969914  0.22623981  0.50728098     0.05000
C449        C  0.56606992  0.18923012  0.48917639    -0.07300
C450        C  0.59499561  0.15789349  0.52328182    -0.08100
C451        C  0.58779976  0.16030814  0.57690843    -0.02600
C452        C  0.55630645  0.20385677  0.59425037     0.04200
N453        N  0.55474755  0.21964140  0.64626217     0.66700
H454        H  0.50141500  0.26545175  0.57392466     0.15600
H455        H  0.62303588  0.13153100  0.50619533     0.15300
N456        N  0.57453768  0.18319899  0.43586541     0.74400
O457        O  0.58989746  0.24998718  0.66162348    -0.39100
O458        O  0.51136653  0.22067503  0.66905105    -0.39000
O459        O  0.61437088  0.20300368  0.41525028    -0.39700
O460        O  0.54649860  0.15214307  0.41098603    -0.39800
C461        C  0.16415685  0.51975690  0.51249638    -0.12000
C462        C  0.21859506  0.52345743  0.51468627     0.05000
C463        C  0.23962110  0.56002302  0.54881823    -0.07300
C464        C  0.20653362  0.59107639  0.58005260    -0.08100
C465        C  0.15117981  0.58725433  0.57896354    -0.02600
C466        C  0.13080087  0.55110732  0.54268528     0.04200
N467        N  0.07597914  0.54625824  0.53441723     0.66700
H468        H  0.14672583  0.49298027  0.48577380     0.15600
H469        H  0.22534301  0.61916318  0.60420564     0.15300
N470        N  0.29479213  0.56514546  0.55345681     0.74400
O471        O  0.05636277  0.56896076  0.49622513    -0.39100
O472        O  0.05240488  0.50742124  0.55345577    -0.39000
O473        O  0.31663542  0.60684728  0.53871191    -0.39700
O474        O  0.32023693  0.53188222  0.57929662    -0.39800
C475        C  0.54390542  0.49800041  0.17467957    -0.12000
C476        C  0.51332165  0.52394729  0.21110609     0.05000
C477        C  0.51608859  0.57921072  0.21315900    -0.07300
C478        C  0.54961744  0.60666433  0.18026573    -0.08100
C479        C  0.58412060  0.58142565  0.14580466    -0.02600
C480        C  0.57721120  0.52533531  0.14091357     0.04200
N481        N  0.59935571  0.49486349  0.10035606     0.66700
H482        H  0.54026604  0.45571170  0.17085560     0.15600
H483        H  0.55042248  0.64876924  0.18378536     0.15300
N484        N  0.48789955  0.60831865  0.25075441     0.74400
O485        O  0.57779260  0.49633079  0.05748907    -0.39100
O486        O  0.62698301  0.45502294  0.11119319    -0.39000
O487        O  0.50420697  0.60860112  0.29583118    -0.39700
O488        O  0.45398397  0.64172726  0.23717182    -0.39800
C489        C  0.77387162  0.32147981  0.26350001    -0.12000
C490        C  0.77570315  0.26630375  0.26662974     0.05000
C491        C  0.81220655  0.24366765  0.30051850    -0.07300
C492        C  0.84439302  0.27576909  0.33063806    -0.08100
C493        C  0.84013954  0.33156107  0.33110112    -0.02600
C494        C  0.80498631  0.35382836  0.29445333     0.04200
N495        N  0.80031965  0.40951130  0.28710299     0.66700
H496        H  0.74717512  0.34015184  0.23709522     0.15600
H497        H  0.87352537  0.25581891  0.35320062     0.15300
N498        N  0.81881680  0.18781814  0.30368593     0.74400
O499        O  0.82440526  0.43024589  0.25030876    -0.39100
O500        O  0.76096724  0.43327807  0.30498616    -0.39000
O501        O  0.85111214  0.16519595  0.27463781    -0.39700
O502        O  0.80136956  0.16332987  0.34187189    -0.39800
C503        C  0.90059522  0.45897166  0.32976805    -0.12000
C504        C  0.90803606  0.40342467  0.33189243     0.05000
C505        C  0.94612143  0.38256645  0.29720716    -0.07300
C506        C  0.97816100  0.41635902  0.26787044    -0.08100
C507        C  0.97208116  0.47126238  0.26907905    -0.02600
C508        C  0.93195122  0.49224713  0.29960108     0.04200
N509        N  0.92215381  0.54772300  0.30016099     0.66700
H510        H  0.86924309  0.47770905  0.35055221     0.15600
H511        H  0.00752720  0.39928166  0.24307139     0.15300
N512        N  0.95256683  0.32704860  0.29022605     0.74400
O513        O  0.89247840  0.56822907  0.26739259    -0.39100
O514        O  0.93704954  0.57478267  0.33726260    -0.39000
O515        O  0.92685359  0.30509390  0.25574433    -0.39700
O516        O  0.99379405  0.30485733  0.30562555    -0.39800
C517        C  0.96413135  0.33971105  0.40937934    -0.12000
C518        C  0.90918681  0.33268877  0.40585189     0.05000
C519        C  0.88731088  0.29666915  0.44211116    -0.07300
C520        C  0.91941521  0.26696914  0.47501823    -0.08100
C521        C  0.97370357  0.27302496  0.47653441    -0.02600
C522        C  0.99580603  0.31077906  0.44369273     0.04200
N523        N  0.05065171  0.32002920  0.44413602     0.66700
H524        H  0.98349815  0.36937180  0.38692343     0.15600
H525        H  0.90085812  0.23991910  0.50125394     0.15300
N526        N  0.83219787  0.29100471  0.44854728     0.74400
O527        O  0.08119385  0.28878808  0.42136993    -0.39100
O528        O  0.06771937  0.36300205  0.46079845    -0.39000
O529        O  0.81090242  0.24968111  0.43272632    -0.39700
O530        O  0.81030407  0.31565466  0.48436375    -0.39800
C531        C  0.78283524  0.39407710  0.40761639    -0.12000
C532        C  0.83780619  0.40092115  0.40500922     0.05000
C533        C  0.85892067  0.43740154  0.44057786    -0.07300
C534        C  0.82605798  0.46790578  0.47193486    -0.08100
C535        C  0.77179804  0.46194457  0.47257574    -0.02600
C536        C  0.75043580  0.42353307  0.44069313     0.04200
N537        N  0.69565090  0.41399253  0.44106206     0.66700
H538        H  0.76404695  0.36434049  0.38528157     0.15600
H539        H  0.84387444  0.49555202  0.49755885     0.15300
N540        N  0.91388739  0.44345135  0.44715479     0.74400
O541        O  0.66607695  0.44066922  0.41252673    -0.39100
O542        O  0.67799600  0.37425999  0.46417401    -0.39000
O543        O  0.93529219  0.48459528  0.43031566    -0.39700
O544        O  0.93528668  0.41944658  0.48366686    -0.39800
C545        C  0.34011075  0.78420912  0.33069338    -0.12000
C546        C  0.33408035  0.84003357  0.33411266     0.05000
C547        C  0.29733942  0.86270554  0.29902739    -0.07300
C548        C  0.26622713  0.83057036  0.26765658    -0.08100
C549        C  0.27141958  0.77557901  0.26727756    -0.02600
C550        C  0.30946558  0.75271555  0.29878161     0.04200
N551        N  0.31864109  0.69711419  0.29786693     0.66700
H552        H  0.37037009  0.76350125  0.35102180     0.15600
H553        H  0.23840816  0.84914646  0.24229726     0.15300
N554        N  0.29169558  0.91846656  0.29297254     0.74400
O555        O  0.34407257  0.67696366  0.26163474    -0.39100
O556        O  0.30752630  0.66934733  0.33621433    -0.39000
O557        O  0.32013029  0.94145717  0.26067540    -0.39700
O558        O  0.24897655  0.93996454  0.30538979    -0.39800
C559        C  0.44144595  0.99496774  0.30224812    -0.12000
C560        C  0.46830081  0.96938250  0.26284430     0.05000
C561        C  0.45954043  0.91483807  0.25717600    -0.07300
C562        C  0.42835128  0.88722927  0.29234591    -0.08100
C563        C  0.40245535  0.91176886  0.33378925    -0.02600
C564        C  0.40692181  0.96833459  0.33560464     0.04200
N565        N  0.37456085  0.00110157  0.36700156     0.66700
H566        H  0.44512783  0.03728478  0.30556629     0.15600
H567        H  0.42527130  0.84504731  0.28755431     0.15300
N568        N  0.48241410  0.88590206  0.21634903     0.74400
O569        O  0.39523850  0.03730836  0.39237753    -0.39100
O570        O  0.32651553  0.00465074  0.35757622    -0.39000
O571        O  0.52528988  0.86217479  0.22288447    -0.39700
O572        O  0.45497077  0.87491162  0.17833159    -0.39800
C573        C  0.32943172  0.96841902  0.48417395    -0.12000
C574        C  0.27514376  0.97133335  0.48007817     0.05000
C575        C  0.25120830  0.93826340  0.44443103    -0.07300
C576        C  0.28151990  0.90585268  0.41220276    -0.08100
C577        C  0.33685543  0.90641636  0.41190973    -0.02600
C578        C  0.35999540  0.93533642  0.45271690     0.04200
N579        N  0.41389908  0.92988530  0.46546705     0.66700
H580        H  0.34852532  0.99049920  0.51368276     0.15600
H581        H  0.26035503  0.88041453  0.38730018     0.15300
N582        N  0.19579315  0.93823065  0.43914292     0.74400
O583        O  0.44320951  0.96913011  0.45998761    -0.39100
O584        O  0.42627347  0.89557081  0.49819484    -0.39000
O585        O  0.17379717  0.97325735  0.41246240    -0.39700
O586        O  0.16988511  0.89936536  0.45488013    -0.39800
C587        C  0.38075025  0.80172611  0.43807250    -0.12000
C588        C  0.40637206  0.83643586  0.40377111     0.05000
C589        C  0.46247498  0.83463969  0.40502901    -0.07300
C590        C  0.48882226  0.79993412  0.43852348    -0.08100
C591        C  0.46252602  0.76576672  0.47165758    -0.02600
C592        C  0.40754332  0.76662699  0.47054758     0.04200
N593        N  0.37764377  0.73340086  0.50322995     0.66700
H594        H  0.33852704  0.80173363  0.43949703     0.15600
H595        H  0.53106617  0.80026419  0.43889879     0.15300
N596        N  0.49476146  0.86846038  0.37511821     0.74400
O597        O  0.37250687  0.74499953  0.54949093    -0.39100
O598        O  0.34834087  0.69926646  0.48413234    -0.39000
O599        O  0.50329867  0.91456127  0.39031324    -0.39700
O600        O  0.52614564  0.84802306  0.34367841    -0.39800
C601        C  0.32584827  0.28160367  0.85026038    -0.12000
C602        C  0.32690279  0.33710892  0.84190897     0.05000
C603        C  0.28776735  0.35694852  0.80798365    -0.07300
C604        C  0.25605802  0.32266213  0.78005166    -0.08100
C605        C  0.25970107  0.26780642  0.78485011    -0.02600
C606        C  0.29433235  0.24747555  0.82150603     0.04200
N607        N  0.29627827  0.19221836  0.83188426     0.66700
H608        H  0.34878757  0.26339115  0.87974135     0.15600
H609        H  0.22845387  0.33974633  0.75359063     0.15300
N610        N  0.27845415  0.41200688  0.80104619     0.74400
O611        O  0.33234659  0.16437006  0.81296713    -0.39100
O612        O  0.26747181  0.17311136  0.86618238    -0.39000
O613        O  0.24453681  0.43395360  0.82884925    -0.39700
O614        O  0.28801222  0.43215523  0.75814061    -0.39800
C615        C  0.29952948  0.49954492  0.93484685    -0.12000
C616        C  0.26838326  0.47505870  0.97132457     0.05000
C617        C  0.26562609  0.41986996  0.97138825    -0.07300
C618        C  0.29609618  0.39025016  0.93708046    -0.08100
C619        C  0.33102351  0.41386978  0.90179650    -0.02600
C620        C  0.32950614  0.47071678  0.89945196     0.04200
N621        N  0.35502819  0.50135305  0.86106275     0.66700
H622        H  0.29921478  0.54220219  0.93262282     0.15600
H623        H  0.29432992  0.34771931  0.93980238     0.15300
N624        N  0.23295601  0.39302363  0.00696608     0.74400
O625        O  0.33528689  0.50430515  0.81746358    -0.39100
O626        O  0.38510951  0.53766076  0.87465184    -0.39000
O627        O  0.19411355  0.36789327  0.99130698    -0.39700
O628        O  0.24801320  0.38656529  0.05208481    -0.39800
C629        C  0.43704334  0.30283538  0.88551835    -0.12000
C630        C  0.40545360  0.34317642  0.90700293     0.05000
C631        C  0.41544573  0.35409023  0.95978481    -0.07300
C632        C  0.45010200  0.32200424  0.98799789    -0.08100
C633        C  0.47758086  0.27969958  0.96654573    -0.02600
C634        C  0.47062283  0.27042491  0.91434161     0.04200
N635        N  0.49744650  0.22822672  0.88945950     0.66700
H636        H  0.43421189  0.29466527  0.84560448     0.15600
H637        H  0.45613023  0.33123795  0.02758002     0.15300
N638        N  0.39473299  0.39903292  0.98596688     0.74400
O639        O  0.47664197  0.18344276  0.88772137    -0.39100
O640        O  0.53616408  0.23800584  0.86132407    -0.39000
O641        O  0.36908987  0.39169083  0.02638083    -0.39700
O642        O  0.41549756  0.44334226  0.97899597    -0.39800
C643        C  0.44255226  0.43797635  0.85256752    -0.12000
C644        C  0.40509664  0.40359959  0.83177175     0.05000
C645        C  0.40863087  0.39605924  0.77776960    -0.07300
C646        C  0.44095258  0.42885884  0.74793070    -0.08100
C647        C  0.47284565  0.46690031  0.76958981    -0.02600
C648        C  0.47435409  0.47067623  0.82257983     0.04200
N649        N  0.50670540  0.50880748  0.84661170     0.66700
H650        H  0.44467739  0.44251852  0.89306097     0.15600
H651        H  0.44271406  0.42311420  0.70721980     0.15300
N652        N  0.38522792  0.35260721  0.75226943     0.74400
O653        O  0.50391790  0.55664335  0.83348564    -0.39100
O654        O  0.53402286  0.49578461  0.88440108    -0.39000
O655        O  0.35964134  0.36111708  0.71223976    -0.39700
O656        O  0.40278661  0.30675084  0.76013352    -0.39800
C657        C  0.17705135  0.63382472  0.68766057    -0.12000
C658        C  0.14508583  0.65939674  0.65092361     0.05000
C659        C  0.14327347  0.71613227  0.65374198    -0.07300
C660        C  0.17637356  0.74303033  0.68721168    -0.08100
C661        C  0.20980361  0.71687327  0.72101001    -0.02600
C662        C  0.20871035  0.66141306  0.72193150     0.04200
N663        N  0.24121417  0.63209905  0.75589581     0.66700
H664        H  0.17869887  0.59120325  0.68883315     0.15600
H665        H  0.17496579  0.78569147  0.68740249     0.15300
N666        N  0.10819757  0.74853480  0.62469970     0.74400
O667        O  0.22377330  0.61874051  0.79889829    -0.39100
O668        O  0.28324313  0.61192772  0.73979984    -0.39000
O669        O  0.06095317  0.75160798  0.63779186    -0.39700
O670        O  0.12661788  0.78529760  0.59778869    -0.39800
C671        C  0.22409450  0.07419808  0.00735539    -0.12000
C672        C  0.22614937  0.01957988  0.01483851     0.05000
C673        C  0.19221391  0.99732814  0.05126339    -0.07300
C674        C  0.15986305  0.02979323  0.08111965    -0.08100
C675        C  0.16144109  0.08544275  0.07820335    -0.02600
C676        C  0.19240469  0.10704883  0.03768844     0.04200
N677        N  0.19094736  0.16198845  0.02499830     0.66700
H678        H  0.24822983  0.09203733  0.97820394     0.15600
H679        H  0.13251387  0.01010007  0.10566165     0.15300
N680        N  0.18815710  0.94148871  0.05718316     0.74400
O681        O  0.21843323  0.19411586  0.04914632    -0.39100
O682        O  0.17126722  0.17631525  0.98330981    -0.39000
O683        O  0.19868512  0.92017998  0.09932253    -0.39700
O684        O  0.16700591  0.91465171  0.02296147    -0.39800
C685        C  0.54235098  0.73521951  0.04999260    -0.12000
C686        C  0.51534865  0.70855511  0.01189059     0.05000
C687        C  0.52011486  0.65333194  0.01055402    -0.07300
C688        C  0.55221821  0.62707697  0.04534117    -0.08100
C689        C  0.58395280  0.65311549  0.08073523    -0.02600
C690        C  0.57501441  0.70889741  0.08498560     0.04200
N691        N  0.59453783  0.73984023  0.12593269     0.66700
H692        H  0.53711700  0.77753356  0.05365249     0.15600
H693        H  0.55401040  0.58428541  0.04283710     0.15300
N694        N  0.49241929  0.62266678  0.97460746     0.74400
O695        O  0.57148161  0.73812553  0.16829376    -0.39100
O696        O  0.62168018  0.77978437  0.11574175    -0.39000
O697        O  0.51728970  0.60008510  0.93934537    -0.39700
O698        O  0.44622221  0.60905181  0.98425867    -0.39800
C699        C  0.48923018  0.05131207  0.67529042    -0.12000
C700        C  0.51225563  0.01207499  0.70528049     0.05000
C701        C  0.56651058  0.00532298  0.70226802    -0.07300
C702        C  0.59696537  0.03967153  0.67238773    -0.08100
C703        C  0.57510714  0.08179305  0.64335823    -0.02600
C704        C  0.51878564  0.08453133  0.64299609     0.04200
N705        N  0.48942998  0.11733689  0.60893859     0.66700
H706        H  0.44712715  0.05524208  0.67586769     0.15600
H707        H  0.63887075  0.03407149  0.67287759     0.15300
N708        N  0.59144984  0.96354026  0.72957994     0.74400
O709        O  0.48987839  0.10692416  0.56223758    -0.39100
O710        O  0.45170127  0.14415680  0.62621104    -0.39000
O711        O  0.59364453  0.91803823  0.71067748    -0.39700
O712        O  0.61528035  0.97299075  0.77020490    -0.39800
C713        C  0.68725673  0.18726023  0.63152650    -0.12000
C714        C  0.64949290  0.15238490  0.65232566     0.05000
C715        C  0.64425168  0.15444053  0.70696092    -0.07300
C716        C  0.67748915  0.18618807  0.73642978    -0.08100
C717        C  0.71610322  0.21828828  0.71517535    -0.02600
C718        C  0.72071335  0.21824495  0.66163109     0.04200
N719        N  0.75878357  0.25004472  0.63665618     0.66700
H720        H  0.69176864  0.18962877  0.59067770     0.15600
H721        H  0.67191723  0.18639898  0.77719704     0.15300
N722        N  0.60354089  0.12862817  0.73456999     0.74400
O723        O  0.80406890  0.23173197  0.62928981    -0.39100
O724        O  0.74467887  0.29150919  0.61375725    -0.39000
O725        O  0.61563969  0.09754132  0.77024689    -0.39700
O726        O  0.55820141  0.14821565  0.73412899    -0.39800
C727        C  0.03208889  0.16949688  0.00777533    -0.12000
C728        C  0.03449491  0.22430283  0.01119872     0.05000
C729        C  0.06750604  0.24639522  0.04750300    -0.07300
C730        C  0.09741069  0.21374428  0.07959349    -0.08100
C731        C  0.09450209  0.15786491  0.07834442    -0.02600
C732        C  0.06137933  0.13635387  0.04010575     0.04200
N733        N  0.05748104  0.08077590  0.03247241     0.66700
H734        H  0.00698871  0.15202493  0.97967875     0.15600
H735        H  0.12432425  0.23356032  0.10398201     0.15300
N736        N  0.07136789  0.30232765  0.05218055     0.74400
O737        O  0.01840983  0.05683043  0.05005457    -0.39100
O738        O  0.08263037  0.06022843  0.99623945    -0.39000
O739        O  0.05968344  0.32428650  0.09359542    -0.39700
O740        O  0.09022666  0.32934523  0.01631554    -0.39800
C741        C  0.72925761  0.51550125  0.07095273    -0.12000
C742        C  0.72493990  0.51584431  0.01785802     0.05000
C743        C  0.69176222  0.55347393  0.99541006    -0.07300
C744        C  0.66119955  0.58713570  0.02586254    -0.08100
C745        C  0.66063678  0.58362118  0.07977098    -0.02600
C746        C  0.69857049  0.54893078  0.10176668     0.04200
N747        N  0.70725057  0.54729827  0.15536945     0.66700
H748        H  0.75618007  0.48832334  0.08909260     0.15600
H749        H  0.63962557  0.61742969  0.00608951     0.15300
N750        N  0.69134514  0.56064557  0.94156529     0.74400
O751        O  0.68579191  0.51211987  0.18200740    -0.39100
O752        O  0.74630382  0.57069737  0.17297639    -0.41400
O753        O  0.65057280  0.55107165  0.91687203    -0.39700
O754        O  0.72856730  0.58425594  0.92005890    -0.39800
C755        C  0.08978019  0.53158438  0.65488387    -0.12000
C756        C  0.07914454  0.58649750  0.64968853     0.05000
C757        C  0.03898370  0.60658422  0.68268980    -0.07300
C758        C  0.00707095  0.57236292  0.71127995    -0.08100
C759        C  0.01611552  0.51812994  0.71255631    -0.02600
C760        C  0.05902276  0.49803244  0.68529863     0.04200
N761        N  0.07219419  0.44332190  0.68832149     0.66700
H762        H  0.12282823  0.51354611  0.63607765     0.15600
H763        H  0.97598777  0.58880557  0.73447896     0.15300
N764        N  0.03058256  0.66166629  0.68984806     0.74400
O765        O  0.05658078  0.41228054  0.65457002    -0.39100
O766        O  0.10517679  0.42749497  0.72043013    -0.39000
O767        O  0.98721118  0.68142305  0.67713927    -0.39700
O768        O  0.05620216  0.68416868  0.72407813    -0.39800
C769        C  0.72831881  0.72014268  0.15579092    -0.12000
C770        C  0.72393522  0.71992907  0.20875570     0.05000
C771        C  0.68931658  0.68405128  0.23143411    -0.07300
C772        C  0.65855467  0.65083022  0.20135094    -0.08100
C773        C  0.65926293  0.65307130  0.14741681    -0.02600
C774        C  0.69736551  0.68739487  0.12522807     0.04200
N775        N  0.70673991  0.68866858  0.07165232     0.66700
H776        H  0.75634423  0.74596052  0.13772545     0.15600
H777        H  0.63533899  0.62228548  0.22144476     0.15300
N778        N  0.68586244  0.67984494  0.28542905     0.74400
O779        O  0.68379458  0.72273193  0.04461833    -0.39100
O780        O  0.74735568  0.66661652  0.05440634    -0.39000
O781        O  0.64945727  0.70319746  0.30882905    -0.39700
O782        O  0.71398348  0.64667057  0.30862441    -0.39800
C783        C  0.07448885  0.02360927  0.22042833    -0.12000
C784        C  0.02048786  0.03141510  0.21844842     0.05000
C785        C  0.00126038  0.06967247  0.18427687    -0.07300
C786        C  0.03576467  0.09825447  0.15294494    -0.08100
C787        C  0.09056177  0.08880656  0.15199899    -0.02600
C788        C  0.10927590  0.05230773  0.18963937     0.04200
N789        N  0.16352491  0.04446163  0.19931473     0.66700
H790        H  0.09049282  0.99596787  0.24782319     0.15600
H791        H  0.01814215  0.12821024  0.12931751     0.15300
N792        N  0.94649706  0.07899321  0.17927432     0.74400
O793        O  0.18326098  0.99963870  0.19074549    -0.39100
O794        O  0.18444631  0.07272375  0.23258540    -0.39000
O795        O  0.92765709  0.12382796  0.18934211    -0.39700
O796        O  0.91890510  0.04588679  0.15642804    -0.39800
C797        C  0.07302077  0.71830914  0.50168871    -0.12000
C798        C  0.01839536  0.71705714  0.50303830     0.05000
C799        C  0.99462395  0.68173521  0.53714074    -0.07300
C800        C  0.02503316  0.65168430  0.57127078    -0.08100
C801        C  0.08021653  0.65563172  0.57360729    -0.02600
C802        C  0.10391597  0.68713042  0.53450482     0.04200
N803        N  0.15899092  0.68561996  0.52469077     0.66700
H804        H  0.09233935  0.74280736  0.47367014     0.15600
H805        H  0.00430547  0.62386619  0.59463202     0.15300
N806        N  0.93927876  0.67608146  0.53804950     0.74400
O807        O  0.17531073  0.66965995  0.48215391    -0.39100
O808        O  0.19024830  0.70856766  0.55372361    -0.39000
O809        O  0.91882564  0.63662818  0.51749722    -0.39700
O810        O  0.91175272  0.70604658  0.56549900    -0.39800
C811        C  0.66032289  0.00923938  0.51487226    -0.12000
C812        C  0.71462565  0.01365874  0.51373889     0.05000
C813        C  0.73727394  0.04851846  0.54863327    -0.07300
C814        C  0.70589107  0.07807703  0.58271287    -0.08100
C815        C  0.65044314  0.07838552  0.58095429    -0.02600
C816        C  0.62846126  0.04041487  0.54693963     0.04200
N817        N  0.57349601  0.03330907  0.54246165     0.66700
H818        H  0.64168263  0.98224008  0.48916418     0.15600
H819        H  0.72651685  0.10096384  0.61016673     0.15300
N820        N  0.79255415  0.05441508  0.55034263     0.74400
O821        O  0.55206528  0.04615545  0.50115570    -0.39100
O822        O  0.55218322  0.99830935  0.56947837    -0.39000
O823        O  0.81369487  0.09177137  0.52634420    -0.39700
O824        O  0.81884363  0.02816145  0.58208746    -0.39800
C825        C  0.84994881  0.93281196  0.93597213    -0.12000
C826        C  0.82489224  0.89778860  0.90224775     0.05000
C827        C  0.76877254  0.89566509  0.90613342    -0.07300
C828        C  0.74179587  0.92945321  0.93945139    -0.08100
C829        C  0.76751544  0.96541094  0.96984925    -0.02600
C830        C  0.82207153  0.96697666  0.96819341     0.04200
N831        N  0.84975111  0.00420033  0.99797348     0.66700
H832        H  0.89206949  0.93549440  0.93549345     0.15600
H833        H  0.69961885  0.92759717  0.94149409     0.15300
N834        N  0.73700142  0.85972188  0.87868269     0.74400
O835        O  0.86737116  0.99083182  0.04077729    -0.39100
O836        O  0.86191451  0.04818952  0.97904285    -0.39000
O837        O  0.73116796  0.81360450  0.89553306    -0.39700
O838        O  0.70211704  0.87847612  0.85006363    -0.39800
C839        C  0.93397200  0.87590624  0.79970769    -0.12000
C840        C  0.89541190  0.90098968  0.82991908     0.05000
C841        C  0.88799197  0.95645771  0.82009197    -0.07300
C842        C  0.92151268  0.98336877  0.78618254    -0.08100
C843        C  0.96211808  0.95786960  0.75995598    -0.02600
C844        C  0.96783047  0.90307927  0.76715449     0.04200
N845        N  0.00741140  0.87345920  0.74147265     0.66700
H846        H  0.93957490  0.83405330  0.80275630     0.15600
H847        H  0.91509626  0.02514078  0.77989375     0.15300
N848        N  0.84557442  0.98676641  0.84066626     0.74400
O849        O  0.04730433  0.85860356  0.76563889    -0.39100
O850        O  0.99718152  0.85219966  0.69959408    -0.39000
O851        O  0.85588391  0.02656357  0.86711055    -0.39700
O852        O  0.80167015  0.98504414  0.81948481    -0.39800
C853        C  0.80714104  0.74578663  0.78577057    -0.12000
C854        C  0.77122393  0.77251299  0.75481604     0.05000
C855        C  0.76872251  0.82770609  0.75783192    -0.07300
C856        C  0.79915264  0.85398299  0.79313914    -0.08100
C857        C  0.83197136  0.82808752  0.82833027    -0.02600
C858        C  0.83862496  0.77233062  0.82101142     0.04200
N859        N  0.87965334  0.74201158  0.84405367     0.66700
H860        H  0.81192430  0.70345498  0.78165483     0.15600
H861        H  0.79567304  0.89682693  0.79384040     0.15300
N862        N  0.73713317  0.85827340  0.72401976     0.74400
O863        O  0.86812291  0.70083182  0.86853403    -0.39100
O864        O  0.92520130  0.74550116  0.82617890    -0.39000
O865        O  0.69923593  0.88471598  0.74138276    -0.39700
O866        O  0.75314582  0.86724015  0.67948145    -0.39800
C867        C  0.95228424  0.83914473  0.90761220    -0.12000
C868        C  0.89743626  0.83170079  0.90500941     0.05000
C869        C  0.87624633  0.79604832  0.94196921    -0.07300
C870        C  0.90889770  0.76639626  0.97412790    -0.08100
C871        C  0.96307826  0.77091111  0.97243932    -0.02600
C872        C  0.98472595  0.80826170  0.93905118     0.04200
N873        N  0.03966703  0.81701119  0.93799728     0.66700
H874        H  0.97130680  0.86981673  0.88624310     0.15600
H875        H  0.89118799  0.73897420  0.00058226     0.15300
N876        N  0.82151464  0.78989697  0.94940147     0.74400
O877        O  0.06736367  0.79574546  0.90396838    -0.39100
O878        O  0.05882503  0.85254788  0.96524703    -0.39000
O879        O  0.80124103  0.74675404  0.93711998    -0.39700
O880        O  0.79981186  0.81640692  0.98408130    -0.39800
loop_ 
_geom_bond_atom_site_label_1 
_geom_bond_atom_site_label_2 
_geom_bond_distance 
_geom_bond_site_symmetry_2 
_ccdc_geom_bond_type 
C1          C826   1.578       .  S
C1          C840   1.594       .  S
C1          C857   1.576       .  S
C1          C868   1.589       .  S
C2           N20   1.330       .  A
C2           C39   1.444   1_565  S
C2          C184   1.400   1_665  S
N3           N20   1.308       .  A
N3           N25   1.319       .  A
N3          Co40   2.010       .  S
C4           N29   1.326       .  A
C4           C42   1.450       .  S
C4           H49   1.082       .  S
H5           C46   1.081       .  S
C6           N30   1.331       .  A
C6           C10   1.447       .  S
C6           H35   1.082       .  S
Co7          N25   2.033       .  S
Co7          N15   2.098       .  S
Co7          N47   2.099       .  S
Co7          N23   2.023       .  S
Co7         Cl51   2.449       .  S
N8           C46   1.351       .  A
N8           N15   1.320       .  A
N8           Co9   2.128       .  S
Co9          N12   2.043       .  S
Co9          N29   2.045       .  S
Co9          N16   2.117       .  S
Co9         Cl51   2.438       .  S
C10          N48   1.337       .  A
C10         C398   1.419       .  S
N11          N18   1.318       .  A
N11          N41   1.333       .  A
N11         Co44   2.115       .  S
N12          N30   1.323       .  A
N12          N48   1.313       .  A
N13          C42   1.335   1_545  A
N13          N23   1.313   1_545  A
H14          C39   1.082       .  S
N15          N36   1.332       .  A
N16          N34   1.319       .  A
N16          N21   1.333       .  A
C17          N21   1.358       .  A
C17          C45   1.463       .  S
C17         C770   1.499       .  S
N18          C33   1.344   1_655  A
N18         Co40   2.091       .  S
C19          N47   1.348   1_545  A
C19          C22   1.470       .  S
C19          H53   1.081       .  S
C22          N43   1.354   1_645  A
C22         C784   1.502   1_655  S
N23          N29   1.317       .  A
N24          C50   1.324   1_655  A
N24          N26   1.315       .  A
N24         Co40   2.002       .  S
N25          C39   1.324   1_565  A
N26          N54   1.312       .  A
N26         Co44   2.061       .  S
H27          C50   1.081       .  S
H28          C45   1.082       .  S
N30         Co44   2.056       .  S
N31          N43   1.328   1_655  A
N31          N47   1.316       .  A
N31         Co40   2.096       .  S
C32          N36   1.355       .  A
C32          C46   1.476       .  S
C32         C812   1.513   1_565  S
C33          C52   1.464   1_455  S
C33          H37   1.082       .  S
N34          C45   1.347       .  A
N34         Co44   2.095       .  S
C38          N54   1.347       .  A
C38          C50   1.434   1_655  S
C38         C225   1.407   1_655  S
Co40        Cl51   2.438       .  S
N41          C52   1.359       .  A
C42         C320   1.408   1_565  S
Co44        Cl51   2.439       .  S
C52         C798   1.502   1_655  S
C55          N73   1.359       .  A
C55          C92   1.457       .  S
C55         C742   1.496   1_556  S
N56          N73   1.333       .  A
N56          N78   1.316       .  A
N56         Co93   2.117       .  S
C57          N82   1.348   1_455  A
C57          C95   1.464       .  S
C57         H102   1.081       .  S
H58          C99   1.082   1_455  S
C59          N83   1.349       .  A
C59          C63   1.466       .  S
C59          H88   1.081       .  S
Co60         N78   2.071       .  S
Co60         N68   2.006       .  S
Co60        N100   1.997       .  S
Co60         N76   2.084       .  S
Co60       Cl104   2.430       .  S
N61          C99   1.324       .  A
N61          N68   1.318       .  A
N61         Co62   2.031       .  S
Co62         N65   2.085       .  S
Co62         N82   2.095       .  S
Co62         N69   2.015       .  S
Co62       Cl104   2.448       .  S
C63         N101   1.351       .  A
C63         C759   1.493   1_655  S
N64          N71   1.321       .  A
N64          N94   1.315       .  A
N64         Co97   2.065       .  S
N65          N83   1.318       .  A
N65         N101   1.329       .  A
N66          C95   1.351   1_655  A
N66          N76   1.328       .  A
H67          C92   1.081   1_554  S
N68          N89   1.305       .  A
N69          N87   1.320       .  A
N69          N74   1.309       .  A
C70          N74   1.332       .  A
C70          C98   1.457       .  S
C70         C214   1.406   1_655  S
N71          C86   1.331       .  A
N71         Co93   2.057       .  S
C72         N100   1.321       .  A
C72          C75   1.427       .  S
C72         H106   1.081   1_556  S
C75          N96   1.352       .  A
C75         C300   1.408   1_556  S
N76          N82   1.314       .  A
N77         C103   1.352       .  A
N77          N79   1.318       .  A
N77         Co93   2.119       .  S
N78          C92   1.342       .  A
N79         N107   1.334       .  A
N79         Co97   2.111       .  S
H80         C103   1.081       .  S
H81          C98   1.082       .  S
N83         Co97   2.108       .  S
N84          N96   1.314       .  A
N84         N100   1.318       .  A
N84         Co93   2.079       .  S
C85          N89   1.329       .  A
C85          C99   1.446       .  S
C85         C257   1.397   1_656  S
C86         C105   1.447       .  S
C86          H90   1.082       .  S
N87          C98   1.330       .  A
N87         Co97   2.065       .  S
C91         N107   1.357       .  A
C91         C103   1.478       .  S
C91         C717   1.524       .  S
Co93       Cl104   2.447       .  S
N94         C105   1.345       .  A
C95         C728   1.488   1_556  S
Co97       Cl104   2.437       .  S
C105        C428   1.422       .  S
C108        N126   1.337       .  A
C108        C145   1.440       .  S
C108        C290   1.403   1_565  S
N109        N126   1.309       .  A
N109        N131   1.318       .  A
N109       Co146   2.026       .  S
C110        N135   1.330       .  A
C110        C148   1.460       .  S
C110        H155   1.082       .  S
H111        C152   1.080       .  S
C112        N136   1.332       .  A
C112        C116   1.453       .  S
C112        H141   1.081       .  S
Co113       N131   2.022       .  S
Co113       N121   2.069       .  S
Co113       N153   2.076       .  S
Co113       N129   2.011       .  S
Co113      Cl157   2.428       .  S
N114        C152   1.346       .  A
N114        N121   1.314       .  A
N114       Co115   2.102       .  S
Co115       N118   2.049       .  S
Co115       N135   2.066       .  S
Co115       N122   2.105       .  S
Co115      Cl157   2.450       .  S
C116        N154   1.340       .  A
C116        C408   1.421       .  S
N117        N124   1.316       .  A
N117        N147   1.333       .  A
N117       Co150   2.110       .  S
N118        N136   1.322       .  A
N118        N154   1.315       .  A
N119        C148   1.328       .  A
N119        N129   1.310       .  A
H120        C145   1.082   1_554  S
N121        N142   1.325       .  A
N122        N140   1.317       .  A
N122        N127   1.334       .  A
C123        N127   1.359       .  A
C123        C151   1.464       .  S
C123        C661   1.506       .  S
N124        C139   1.346       .  A
N124       Co146   2.092       .  S
C125        N153   1.342       .  A
C125        C128   1.462       .  S
C125        H159   1.080   1_556  S
C128        N149   1.356   1_565  A
C128        C672   1.497   1_566  S
N129        N135   1.319       .  A
N130        C156   1.324       .  A
N130        N132   1.317       .  A
N130       Co146   2.022       .  S
N131        C145   1.320       .  A
N132        N160   1.316       .  A
N132       Co150   2.069       .  S
H133        C156   1.081   1_545  S
H134        C151   1.082       .  S
N136       Co150   2.069       .  S
N137        N149   1.330   1_565  A
N137        N153   1.313       .  A
N137       Co146   2.098       .  S
C138        N142   1.351       .  A
C138        C152   1.474       .  S
C138        C686   1.500   1_556  S
C139        C158   1.463       .  S
C139        H143   1.082   1_565  S
N140        C151   1.343       .  A
N140       Co150   2.095       .  S
C144        N160   1.349       .  A
C144        C156   1.438       .  S
C144        C194   1.414   1_565  S
Co146      Cl157   2.444       .  S
N147        C158   1.357       .  A
C148        C217   1.409   1_556  S
Co150      Cl157   2.433       .  S
C158        C700   1.498   1_565  S
C161        C602   1.600       .  S
C161        C619   1.584       .  S
C161        C630   1.599       .  S
C161        C644   1.584       .  S
C162        C546   1.612       .  S
C162        C563   1.590       .  S
C162        C577   1.594       .  S
C162        C588   1.593       .  S
C163        C493   1.597       .  S
C163        C504   1.593       .  S
C163        C518   1.596       .  S
C163        C532   1.589       .  S
C164        N182   1.358   1_565  A
C164        C201   1.467   1_655  S
C164        C843   1.503       .  S
N165        N182   1.330   1_455  A
N165        N187   1.314       .  A
N165       Co202   2.101       .  S
C166        N191   1.352       .  A
C166        C204   1.476       .  S
C166        H211   1.082       .  S
H167        C208   1.082       .  S
C168        N192   1.345       .  A
C168        C172   1.468       .  S
C168        H197   1.082       .  S
Co169       N187   2.082       .  S
Co169       N177   2.026       .  S
Co169       N209   2.033       .  S
Co169       N185   2.081       .  S
Co169      Cl213   2.442       .  S
N170        C208   1.326       .  A
N170        N177   1.317       .  A
N170       Co171   2.050       .  S
Co171       N174   2.118       .  S
Co171       N191   2.128       .  S
Co171       N178   2.055       .  S
Co171      Cl213   2.444       .  S
C172        N210   1.360       .  A
C172        C605   1.510       .  S
N173        N180   1.315       .  A
N173        N203   1.312       .  A
N173       Co206   2.062       .  S
N174        N192   1.319       .  A
N174        N210   1.334       .  A
N175        C204   1.351   1_565  A
N175        N185   1.328   1_565  A
H176        C201   1.079       .  S
N177        N198   1.314   1_545  A
N178        N196   1.324       .  A
N178        N183   1.317       .  A
C179        N183   1.339       .  A
C179        C207   1.448       .  S
C179        C355   1.426       .  S
N180        C195   1.324   1_455  A
N180       Co202   2.002       .  S
C181        N209   1.325   1_565  A
C181        C184   1.445   1_565  S
C181        H215   1.082       .  S
C184        N205   1.330   1_455  A
N185        N191   1.319       .  A
N186        C212   1.341   1_455  A
N186        N188   1.318       .  A
N186       Co202   2.087       .  S
N187        C201   1.342   1_545  A
N188        N216   1.337       .  A
N188       Co206   2.131       .  S
H189        C212   1.082       .  S
H190        C207   1.082       .  S
N192       Co206   2.102       .  S
N193        N205   1.307   1_455  A
N193        N209   1.318       .  A
N193       Co202   2.008       .  S
C194        N198   1.336   1_545  A
C194        C208   1.453       .  S
C195        C214   1.435   1_655  S
C195        H199   1.081       .  S
N196        C207   1.330       .  A
N196       Co206   2.061       .  S
C200        N216   1.364       .  A
C200        C212   1.461   1_455  S
C200        C521   1.511   1_455  S
Co202      Cl213   2.441       .  S
N203        C214   1.346       .  A
C204        C574   1.505   1_545  S
Co206      Cl213   2.439       .  S
C217        N235   1.350       .  A
C217        C254   1.431   1_554  S
N218        N235   1.315       .  A
N218        N240   1.315       .  A
N218       Co255   2.067       .  S
C219        N244   1.323   1_655  A
C219        C257   1.443   1_655  S
C219        H264   1.082       .  S
H220        C261   1.081       .  S
C221        N245   1.331       .  A
C221        C225   1.458       .  S
C221        H250   1.081       .  S
Co222       N240   2.004       .  S
Co222       N230   2.085       .  S
Co222       N262   2.079       .  S
Co222       N238   2.008       .  S
Co222      Cl266   2.426       .  S
N223        C261   1.344   1_455  A
N223        N230   1.315       .  A
N223       Co224   2.094       .  S
Co224       N227   2.013       .  S
Co224       N244   2.026       .  S
Co224       N231   2.096       .  S
Co224      Cl266   2.445       .  S
C225        N263   1.331   1_455  A
N226        N233   1.319       .  A
N226        N256   1.334       .  A
N226       Co259   2.121       .  S
N227        N245   1.319       .  A
N227        N263   1.309   1_455  A
N228        C257   1.328   1_556  A
N228        N238   1.307   1_556  A
H229        C254   1.081       .  S
N230        N251   1.329   1_554  A
N231        N249   1.319       .  A
N231        N236   1.331   1_455  A
C232        N236   1.354   1_455  A
C232        C260   1.469       .  S
C232        C507   1.502   1_455  S
N233        C248   1.350       .  A
N233       Co255   2.104       .  S
C234        N262   1.343   1_556  A
C234        C237   1.459   1_556  S
C234        H268   1.081       .  S
C237        N258   1.357       .  A
C237        C616   1.488   1_554  S
N238        N244   1.319       .  A
N239        C265   1.330       .  A
N239        N241   1.321       .  A
N239       Co255   2.052       .  S
N240        C254   1.321   1_554  A
N241        N269   1.315       .  A
N241       Co259   2.061       .  S
H242        C265   1.081       .  S
H243        C260   1.081       .  S
N245       Co259   2.063       .  S
N246        N258   1.331       .  A
N246        N262   1.316       .  A
N246       Co255   2.111       .  S
C247        N251   1.352   1_654  A
C247        C261   1.466       .  S
C247        C871   1.493   1_554  S
C248        C267   1.468       .  S
C248        H252   1.081       .  S
N249        C260   1.351       .  A
N249       Co259   2.120       .  S
C253        N269   1.345       .  A
C253        C265   1.446       .  S
C253        C345   1.418       .  S
Co255      Cl266   2.450       .  S
N256        C267   1.358       .  A
Co259      Cl266   2.436       .  S
C267        C549   1.506       .  S
C270        N288   1.352   1_545  A
C270        C307   1.459   1_554  S
C270        C829   1.480   1_544  S
N271        N288   1.328   1_545  A
N271        N293   1.314       .  A
N271       Co308   2.090       .  S
C272        N297   1.347       .  A
C272        C310   1.471   1_554  S
C272        H317   1.081       .  S
H273        C314   1.082       .  S
C274        N298   1.349       .  A
C274        C278   1.470       .  S
C274        H303   1.080       .  S
Co275       N293   2.084       .  S
Co275       N283   1.998       .  S
Co275       N315   2.019       .  S
Co275       N291   2.087       .  S
Co275      Cl319   2.433       .  S
N276        C314   1.333       .  A
N276        N283   1.317       .  A
N276       Co277   2.071       .  S
Co277       N280   2.115       .  S
Co277       N297   2.112       .  S
Co277       N284   2.058       .  S
Co277      Cl319   2.449       .  S
C278        N316   1.361       .  A
C278        C490   1.517       .  S
N279        N286   1.317       .  A
N279        N309   1.315       .  A
N279       Co312   2.058       .  S
N280        N298   1.317       .  A
N280        N316   1.334       .  A
N281        C310   1.354       .  A
N281        N291   1.330   1_556  A
H282        C307   1.081       .  S
N283        N304   1.307   1_554  A
N284        N302   1.322       .  A
N284        N289   1.316       .  A
C285        N289   1.342       .  A
C285        C313   1.453       .  S
C285        C340   1.427       .  S
N286        C301   1.324   1_545  A
N286       Co308   2.020       .  S
C287        N315   1.324   1_556  A
C287        C290   1.437       .  S
C287        H321   1.082       .  S
C290        N311   1.335   1_546  A
N291        N297   1.317       .  A
N292        C318   1.344   1_545  A
N292        N294   1.316       .  A
N292       Co308   2.088       .  S
N293        C307   1.344   1_554  A
N294        N322   1.333       .  A
N294       Co312   2.120       .  S
H295        C318   1.079       .  S
H296        C313   1.082       .  S
N298       Co312   2.110       .  S
N299        N311   1.308   1_545  A
N299        N315   1.320       .  A
N299       Co308   2.029       .  S
C300        N304   1.325   1_554  A
C300        C314   1.464       .  S
C301        C320   1.437   1_565  S
C301        H305   1.081       .  S
N302        C313   1.331       .  A
N302       Co312   2.065       .  S
C306        N322   1.361       .  A
C306        C318   1.470   1_545  S
C306        C560   1.515   1_545  S
Co308      Cl319   2.439       .  S
N309        C320   1.347       .  A
C310        C633   1.507       .  S
Co312      Cl319   2.437       .  S
C323        C479   1.593       .  S
C323        C689   1.585       .  S
C323        C745   1.581       .  S
C323        C773   1.588       .  S
C324        C465   1.596       .  S
C324        C658   1.591       .  S
C324        C756   1.597       .  S
C324        C801   1.584       .  S
C325        N343   1.362       .  A
C325        C362   1.464       .  S
C325        C462   1.509       .  S
N326        N343   1.336       .  A
N326        N348   1.318       .  A
N326       Co363   2.124       .  S
C327        N352   1.341       .  A
C327        C365   1.463       .  S
C327        H372   1.081       .  S
H328        C369   1.082       .  S
C329        N353   1.348       .  A
C329        C333   1.463       .  S
C329        H358   1.082       .  S
Co330       N348   2.094       .  S
Co330       N338   2.045       .  S
Co330       N370   2.043       .  S
Co330       N346   2.098       .  S
Co330      Cl374   2.447       .  S
N331        C369   1.334       .  A
N331        N338   1.321       .  A
N331       Co332   2.063       .  S
Co332       N335   2.098       .  S
Co332       N352   2.086       .  S
Co332       N339   2.055       .  S
Co332      Cl374   2.450       .  S
C333        N371   1.354       .  A
C333        C448   1.492       .  S
N334        N341   1.323       .  A
N334        N364   1.315       .  A
N334       Co367   2.047       .  S
N335        N353   1.319       .  A
N335        N371   1.330       .  A
N336        C365   1.355       .  A
N336        N346   1.330       .  A
H337        C362   1.082       .  S
N338        N359   1.314       .  A
N339        N357   1.318       .  A
N339        N344   1.317       .  A
C340        N344   1.343       .  A
C340        C368   1.451       .  S
N341        C356   1.329       .  A
N341       Co363   2.052       .  S
C342        N370   1.331       .  A
C342        C345   1.446       .  S
C342        H376   1.081       .  S
C345        N366   1.343       .  A
N346        N352   1.317       .  A
N347        C373   1.347       .  A
N347        N349   1.318       .  A
N347       Co363   2.102       .  S
N348        C362   1.343       .  A
N349        N377   1.329       .  A
N349       Co367   2.093       .  S
H350        C373   1.081       .  S
H351        C368   1.082       .  S
N353       Co367   2.104       .  S
N354        N366   1.314       .  A
N354        N370   1.318       .  A
N354       Co363   2.057       .  S
C355        N359   1.338       .  A
C355        C369   1.451       .  S
C356        C375   1.446       .  S
C356        H360   1.082       .  S
N357        C368   1.329       .  A
N357       Co367   2.052       .  S
C361        N377   1.353       .  A
C361        C373   1.469       .  S
C361        C476   1.500       .  S
Co363      Cl374   2.447       .  S
N364        C375   1.337       .  A
C365        C434   1.496       .  S
Co367      Cl374   2.440       .  S
C375        C393   1.418       .  S
C378        N396   1.353       .  A
C378        C415   1.466       .  S
C378        C854   1.493       .  S
N379        N396   1.328       .  A
N379        N401   1.316       .  A
N379       Co416   2.087       .  S
C380        N405   1.349       .  A
C380        C418   1.473       .  S
C380        H425   1.081       .  S
H381        C422   1.082       .  S
C382        N406   1.345       .  A
C382        C386   1.462       .  S
C382        H411   1.081       .  S
Co383       N401   2.087       .  S
Co383       N391   2.048       .  S
Co383       N423   2.050       .  S
Co383       N399   2.097       .  S
Co383      Cl427   2.447       .  S
N384        C422   1.327       .  A
N384        N391   1.318       .  A
N384       Co385   2.047       .  S
Co385       N388   2.092       .  S
Co385       N405   2.109       .  S
Co385       N392   2.043       .  S
Co385      Cl427   2.437       .  S
C386        N424   1.351       .  A
C386        C647   1.486       .  S
N387        N394   1.318       .  A
N387        N417   1.316       .  A
N387       Co420   2.063       .  S
N388        N406   1.318       .  A
N388        N424   1.328       .  A
N389        C418   1.356       .  A
N389        N399   1.329       .  A
H390        C415   1.081       .  S
N391        N412   1.316       .  A
N392        N410   1.323       .  A
N392        N397   1.312       .  A
C393        N397   1.336       .  A
C393        C421   1.448       .  S
N394        C409   1.330       .  A
N394       Co416   2.043       .  S
C395        N423   1.328       .  A
C395        C398   1.446       .  S
C395        H429   1.082       .  S
C398        N419   1.338       .  A
N399        N405   1.317       .  A
N400        C426   1.342       .  A
N400        N402   1.317       .  A
N400       Co416   2.086       .  S
N401        C415   1.342       .  A
N402        N430   1.334       .  A
N402       Co420   2.115       .  S
H403        C426   1.082       .  S
H404        C421   1.082       .  S
N406       Co420   2.093       .  S
N407        N419   1.314       .  A
N407        N423   1.321       .  A
N407       Co416   2.045       .  S
C408        N412   1.342       .  A
C408        C422   1.449       .  S
C409        C428   1.446       .  S
C409        H413   1.081       .  S
N410        C421   1.331       .  A
N410       Co420   2.059       .  S
C414        N430   1.360       .  A
C414        C426   1.463       .  S
C414        C535   1.504       .  S
Co416      Cl427   2.443       .  S
N417        C428   1.345       .  A
C418        C591   1.509       .  S
Co420      Cl427   2.447       .  S
C431        C451   1.595       .  S
C431        C703   1.590       .  S
C431        C714   1.608       .  S
C431        C815   1.611       .  S
C432        C437   1.583       .  S
C432        C675   1.575       .  S
C432        C731   1.589       .  S
C432        C787   1.596       .  S
C433        H440   1.083       .  S
C433        C434   1.399       .  A
C433        C438   1.407       .  A
C434        C435   1.407       .  A
C435        C436   1.406       .  A
C435        N442   1.428       .  S
C436        H441   1.084       .  S
C436        C437   1.421       .  A
C437        C438   1.443       .  A
C438        N439   1.435       .  S
N439        O443   1.263       .  A
N439        O444   1.261       .  A
N442        O446   1.262       .  A
N442        O445   1.262       .  A
C447        H454   1.084       .  S
C447        C448   1.398       .  A
C447        C452   1.415       .  A
C448        C449   1.402       .  A
C449        C450   1.407       .  A
C449        N456   1.429       .  S
C450        H455   1.077       .  S
C450        C451   1.426       .  A
C451        C452   1.439       .  A
C452        N453   1.431       .  S
N453        O457   1.262       .  A
N453        O458   1.262       .  A
N456        O460   1.262       .  A
N456        O459   1.262       .  A
C461        H468   1.083       .  S
C461        C462   1.402       .  A
C461        C466   1.409       .  A
C462        C463   1.410       .  A
C463        C464   1.417       .  A
C463        N470   1.429       .  S
C464        H469   1.078       .  S
C464        C465   1.425       .  A
C465        C466   1.434       .  A
C466        N467   1.431       .  S
N467        O471   1.262       .  A
N467        O472   1.262       .  A
N470        O474   1.262       .  A
N470        O473   1.261       .  A
C475        H482   1.084       .  S
C475        C476   1.400       .  A
C475        C480   1.414       .  A
C476        C477   1.407       .  A
C477        C478   1.405       .  A
C477        N484   1.429       .  S
C478        H483   1.074       .  S
C478        C479   1.416       .  A
C479        C480   1.444       .  A
C480        N481   1.435       .  S
N481        O485   1.261       .  A
N481        O486   1.262       .  A
N484        O488   1.262       .  A
N484        O487   1.262       .  A
C489        H496   1.084       .  S
C489        C490   1.404       .  A
C489        C494   1.416       .  A
C490        C491   1.414       .  A
C491        C492   1.416       .  A
C491        N498   1.429       .  S
C492        H497   1.079       .  S
C492        C493   1.420       .  A
C493        C494   1.436       .  A
C494        N495   1.430       .  S
N495        O499   1.262       .  A
N495        O500   1.262       .  A
N498        O502   1.262       .  A
N498        O501   1.262       .  A
C503        H510   1.079       .  S
C503        C504   1.423       .  A
C503        C508   1.411       .  A
C504        C505   1.434       .  A
C505        C506   1.417       .  A
C505        N512   1.431       .  S
C506        H511   1.084   1_655  S
C506        C507   1.402       .  A
C507        C508   1.406       .  A
C508        N509   1.429       .  S
N509        O513   1.262       .  A
N509        O514   1.262       .  A
N512        O516   1.262       .  A
N512        O515   1.262       .  A
C517        H524   1.078       .  S
C517        C518   1.426       .  A
C517        C522   1.417       .  A
C518        C519   1.435       .  A
C519        C520   1.410       .  A
C519        N526   1.432       .  S
C520        H525   1.083       .  S
C520        C521   1.404       .  A
C521        C522   1.409       .  A
C522        N523   1.429   1_655  S
N523        O527   1.262       .  A
N523        O528   1.262       .  A
N526        O530   1.262       .  A
N526        O529   1.262       .  A
C531        H538   1.079       .  S
C531        C532   1.424       .  A
C531        C536   1.414       .  A
C532        C533   1.434       .  A
C533        C534   1.408       .  A
C533        N540   1.432       .  S
C534        H539   1.083       .  S
C534        C535   1.402       .  A
C535        C536   1.408       .  A
C536        N537   1.429       .  S
N537        O541   1.262       .  A
N537        O542   1.262       .  A
N540        O544   1.262       .  A
N540        O543   1.262       .  A
C545        H552   1.077       .  S
C545        C546   1.428       .  A
C545        C550   1.412       .  A
C546        C547   1.439       .  A
C547        C548   1.419       .  A
C547        N554   1.430       .  S
C548        H553   1.084       .  S
C548        C549   1.402       .  A
C549        C550   1.405       .  A
C550        N551   1.430       .  S
N551        O555   1.262       .  A
N551        O556   1.262       .  A
N554        O558   1.262       .  A
N554        O557   1.262       .  A
C559        H566   1.084   1_565  S
C559        C560   1.402       .  A
C559        C564   1.418       .  A
C560        C561   1.414       .  A
C561        C562   1.409       .  A
C561        N568   1.427       .  S
C562        H567   1.083       .  S
C562        C563   1.419       .  A
C563        C564   1.443       .  A
C564        N565   1.433   1_565  S
N565        O569   1.263       .  A
N565        O570   1.261       .  A
N568        O572   1.262       .  A
N568        O571   1.262       .  A
C573        H580   1.084       .  S
C573        C574   1.399       .  A
C573        C578   1.413       .  A
C574        C575   1.411       .  A
C575        C576   1.412       .  A
C575        N582   1.430       .  S
C576        H581   1.077       .  S
C576        C577   1.420       .  A
C577        C578   1.440       .  A
C578        N579   1.431       .  S
N579        O583   1.261       .  A
N579        O584   1.262       .  A
N582        O586   1.262       .  A
N582        O585   1.262       .  A
C587        H594   1.084       .  S
C587        C588   1.422       .  A
C587        C592   1.409       .  A
C588        C589   1.440       .  A
C589        C590   1.414       .  A
C589        N596   1.429       .  S
C590        H595   1.084       .  S
C590        C591   1.402       .  A
C591        C592   1.411       .  A
C592        N593   1.428       .  S
N593        O597   1.262       .  A
N593        O598   1.262       .  A
N596        O600   1.263       .  A
N596        O599   1.261       .  A
C601        H608   1.077       .  S
C601        C602   1.426       .  A
C601        C606   1.417       .  A
C602        C603   1.435       .  A
C603        C604   1.411       .  A
C603        N610   1.427       .  S
C604        H609   1.083       .  S
C604        C605   1.400       .  A
C605        C606   1.409       .  A
C606        N607   1.429       .  S
N607        O611   1.262       .  A
N607        O612   1.262       .  A
N610        O614   1.262       .  A
N610        O613   1.262       .  A
C615        H622   1.085       .  S
C615        C616   1.394       .  A
C615        C620   1.410       .  A
C616        C617   1.404       .  A
C617        C618   1.408       .  A
C617        N624   1.428   1_556  S
C618        H623   1.083       .  S
C618        C619   1.422       .  A
C619        C620   1.445       .  A
C620        N621   1.432       .  S
N621        O625   1.260       .  A
N621        O626   1.263       .  A
N624        O628   1.262       .  A
N624        O627   1.261   1_554  A
C629        H636   1.077       .  S
C629        C630   1.419       .  A
C629        C634   1.409       .  A
C630        C631   1.445       .  A
C631        C632   1.412       .  A
C631        N638   1.434       .  S
C632        H637   1.083   1_556  S
C632        C633   1.400       .  A
C633        C634   1.410       .  A
C634        N635   1.429       .  S
N635        O639   1.262       .  A
N635        O640   1.262       .  A
N638        O642   1.261       .  A
N638        O641   1.262   1_556  A
C643        H650   1.076       .  S
C643        C644   1.419       .  A
C643        C648   1.406       .  A
C644        C645   1.440       .  A
C645        C646   1.413       .  A
C645        N652   1.434       .  S
C646        H651   1.084       .  S
C646        C647   1.398       .  A
C647        C648   1.401       .  A
C648        N649   1.434       .  S
N649        O653   1.263       .  A
N649        O654   1.262       .  A
N652        O656   1.261       .  A
N652        O655   1.263       .  A
C657        H664   1.083       .  S
C657        C658   1.423       .  A
C657        C662   1.412       .  A
C658        C659   1.444       .  A
C659        C660   1.412       .  A
C659        N666   1.435       .  S
C660        H665   1.084       .  S
C660        C661   1.401       .  A
C661        C662   1.409       .  A
C662        N663   1.429       .  S
N663        O667   1.262       .  A
N663        O668   1.262       .  A
N666        O670   1.263       .  A
N666        O669   1.260       .  A
C671        H678   1.084   1_554  S
C671        C672   1.400       .  A
C671        C676   1.409       .  A
C672        C673   1.411   1_545  A
C673        C674   1.405   1_565  A
C673        N680   1.430       .  S
C674        H679   1.076       .  S
C674        C675   1.416       .  A
C675        C676   1.437       .  A
C676        N677   1.433       .  S
N677        O681   1.261       .  A
N677        O682   1.262   1_554  A
N680        O684   1.262       .  A
N680        O683   1.262       .  A
C685        H692   1.087       .  S
C685        C686   1.404       .  A
C685        C690   1.411       .  A
C686        C687   1.407       .  A
C687        C688   1.398       .  A
C687        N694   1.427   1_554  S
C688        H693   1.090       .  S
C688        C689   1.413       .  A
C689        C690   1.438       .  A
C690        N691   1.434       .  S
N691        O695   1.261       .  A
N691        O696   1.262       .  A
N694        O698   1.262       .  A
N694        O697   1.262       .  A
C699        H706   1.084       .  S
C699        C700   1.397       .  A
C699        C704   1.417       .  A
C700        C701   1.403       .  A
C701        C702   1.410       .  A
C701        N708   1.427   1_545  S
C702        H707   1.083       .  S
C702        C703   1.424       .  A
C703        C704   1.446       .  A
C704        N705   1.434       .  S
N705        O709   1.261       .  A
N705        O710   1.263       .  A
N708        O712   1.262       .  A
N708        O711   1.262       .  A
C713        H720   1.084       .  S
C713        C714   1.424       .  A
C713        C718   1.419       .  A
C714        C715   1.447       .  A
C715        C716   1.417       .  A
C715        N722   1.431       .  S
C716        H721   1.083       .  S
C716        C717   1.401       .  A
C717        C718   1.416       .  A
C718        N719   1.428       .  S
N719        O723   1.262       .  A
N719        O724   1.262       .  A
N722        O726   1.261       .  A
N722        O725   1.263       .  A
C727        H734   1.084   1_554  S
C727        C728   1.397       .  A
C727        C732   1.410       .  A
C728        C729   1.405       .  A
C729        C730   1.407       .  A
C729        N736   1.431       .  S
C730        H735   1.077       .  S
C730        C731   1.422       .  A
C731        C732   1.436       .  A
C732        N733   1.431       .  S
N733        O737   1.262       .  A
N733        O738   1.262   1_554  A
N736        O740   1.262       .  A
N736        O739   1.262       .  A
C741        H748   1.083       .  S
C741        C742   1.404       .  A
C741        C746   1.410       .  A
C742        C743   1.404   1_554  A
C743        C744   1.406   1_556  A
C743        N750   1.430       .  S
C744        H749   1.077       .  S
C744        C745   1.423       .  A
C745        C746   1.430       .  A
C746        N747   1.432       .  S
N747        O751   1.261       .  A
N747        O752   1.262       .  A
N750        O754   1.262       .  A
N750        O753   1.262       .  A
C755        H762   1.079       .  S
C755        C756   1.425       .  A
C755        C760   1.410       .  A
C756        C757   1.436       .  A
C757        C758   1.411       .  A
C757        N764   1.427       .  S
C758        H763   1.084   1_455  S
C758        C759   1.395       .  A
C759        C760   1.405       .  A
C760        N761   1.429       .  S
N761        O765   1.262       .  A
N761        O766   1.262       .  A
N764        O768   1.262       .  A
N764        O767   1.263   1_455  A
C769        H776   1.084       .  S
C769        C770   1.400       .  A
C769        C774   1.414       .  A
C770        C771   1.407       .  A
C771        C772   1.411       .  A
C771        N778   1.429       .  S
C772        H777   1.077       .  S
C772        C773   1.422       .  A
C773        C774   1.435       .  A
C774        N775   1.431       .  S
N775        O779   1.261       .  A
N775        O780   1.262       .  A
N778        O782   1.262       .  A
N778        O781   1.262       .  A
C783        H790   1.084   1_545  S
C783        C784   1.399       .  A
C783        C788   1.408       .  A
C784        C785   1.409       .  A
C785        C786   1.410       .  A
C785        N792   1.430   1_455  S
C786        H791   1.078       .  S
C786        C787   1.424       .  A
C787        C788   1.436       .  A
C788        N789   1.429       .  S
N789        O793   1.263   1_545  A
N789        O794   1.262       .  A
N792        O796   1.262       .  A
N792        O795   1.262       .  A
C797        H804   1.084       .  S
C797        C798   1.402       .  A
C797        C802   1.411       .  A
C798        C799   1.407   1_455  A
C799        C800   1.411   1_655  A
C799        N806   1.429       .  S
C800        H805   1.077       .  S
C800        C801   1.422       .  A
C801        C802   1.437       .  A
C802        N803   1.435       .  S
N803        O807   1.262       .  A
N803        O808   1.261       .  A
N806        O810   1.262       .  A
N806        O809   1.262       .  A
C811        H818   1.083   1_545  S
C811        C812   1.399       .  A
C811        C816   1.413       .  A
C812        C813   1.412       .  A
C813        C814   1.417       .  A
C813        N820   1.429       .  S
C814        H819   1.076       .  S
C814        C815   1.424       .  A
C815        C816   1.442       .  A
C816        N817   1.429       .  S
N817        O821   1.262       .  A
N817        O822   1.262   1_545  A
N820        O824   1.262       .  A
N820        O823   1.262       .  A
C825        H832   1.084       .  S
C825        C826   1.422       .  A
C825        C830   1.406       .  A
C826        C827   1.444       .  A
C827        C828   1.406       .  A
C827        N834   1.432       .  S
C828        H833   1.085       .  S
C828        C829   1.392       .  A
C829        C830   1.401       .  A
C830        N831   1.429   1_565  S
N831        O835   1.261   1_546  A
N831        O836   1.262       .  A
N834        O838   1.262       .  A
N834        O837   1.260       .  A
C839        H846   1.074       .  S
C839        C840   1.416       .  A
C839        C844   1.401       .  A
C840        C841   1.442       .  A
C841        C842   1.414       .  A
C841        N848   1.433       .  S
C842        H847   1.084   1_565  S
C842        C843   1.402       .  A
C843        C844   1.410       .  A
C844        N845   1.428   1_655  S
N845        O849   1.262       .  A
N845        O850   1.262   1_455  A
N848        O852   1.261       .  A
N848        O851   1.262   1_565  A
C853        H860   1.087       .  S
C853        C854   1.402       .  A
C853        C858   1.413       .  A
C854        C855   1.405       .  A
C855        C856   1.395       .  A
C855        N862   1.429       .  S
C856        H861   1.091       .  S
C856        C857   1.412       .  A
C857        C858   1.439       .  A
C858        N859   1.434       .  S
N859        O863   1.262       .  A
N859        O864   1.261       .  A
N862        O866   1.262       .  A
N862        O865   1.262       .  A
C867        H874   1.077       .  S
C867        C868   1.424       .  A
C867        C872   1.408       .  A
C868        C869   1.434       .  A
C869        C870   1.406       .  A
C869        N876   1.427       .  S
C870        H875   1.084   1_556  S
C870        C871   1.396       .  A
C871        C872   1.406       .  A
C872        N873   1.429   1_655  S
N873        O877   1.262       .  A
N873        O878   1.262       .  A
N876        O880   1.262       .  A
N876        O879   1.262       .  A
