geometry optimzed in LAMMPS
_audit_creation_date              2020-11-30 
_audit_creation_method            'lammps2cif' 
_symmetry_space_group_name_H-M    'P1' 
_symmetry_Int_Tables_number       1 
_symmetry_cell_setting            triclinic 
loop_ 
_symmetry_equiv_pos_as_xyz 
  x,y,z 
_cell_length_a                    40.51485495 
_cell_length_b                    40.51879440286309 
_cell_length_c                    41.04624435699001 
_cell_angle_alpha                 89.98686592038807 
_cell_angle_beta                  90.01330959673884 
_cell_angle_gamma                 120.02776284986311 
loop_ 
_atom_site_label 
_atom_site_type_symbol 
_atom_site_fract_x 
_atom_site_fract_y 
_atom_site_fract_z 
_atom_site_charge 
C1          C  0.22330575  0.21282514  0.15095106     0.82200
N2          N  0.22192250  0.21179536  0.11790751    -0.76100
C3          C  0.25034405  0.24024962  0.10039439     0.84600
N4          N  0.28008458  0.26970519  0.11590254    -0.76100
C5          C  0.28144819  0.27071404  0.14892504     0.84700
N6          N  0.25305047  0.24228707  0.16642628    -0.77800
C7          C  0.22215342  0.21398321  0.45064927     0.82200
N8          N  0.25161514  0.24373047  0.43517557    -0.76100
C9          C  0.28003557  0.27213186  0.45267926     0.84600
N10         N  0.27902175  0.27076995  0.48570104    -0.76100
C11         C  0.24956575  0.24102814  0.00120768     0.84700
N12         N  0.22111841  0.21260178  0.48369242    -0.77800
C13         C  0.24811937  0.47753640  0.15105569     0.82200
N14         N  0.24918862  0.47718825  0.11800993    -0.76100
C15         C  0.22076710  0.47716188  0.10045257     0.84600
N16         N  0.19129799  0.47743483  0.11592416    -0.76100
C17         C  0.19024679  0.47778510  0.14894629     0.84700
N18         N  0.21864153  0.47780926  0.16648725    -0.77800
C19         C  0.24685109  0.47471061  0.45069965     0.82200
N20         N  0.21707828  0.47433934  0.43520567    -0.76100
C21         C  0.18871626  0.47444167  0.45268373     0.84600
N22         N  0.19014326  0.47495639  0.48570893    -0.76100
C23         C  0.21991171  0.47533136  0.00124192     0.84700
N24         N  0.24829526  0.47522478  0.48374550    -0.77800
C25         C  0.48401586  0.23749443  0.15091991     0.82200
N26         N  0.48364382  0.20772118  0.16640894    -0.76100
C27         C  0.48375023  0.17936599  0.14892665     0.84600
N28         N  0.48427035  0.18080101  0.11590134    -0.76100
C29         C  0.48464675  0.21056995  0.10037216     0.84700
N30         N  0.48453560  0.23894603  0.11787356    -0.77800
C31         C  0.48687940  0.23878436  0.45054760     0.82200
N32         N  0.48652502  0.23985317  0.48359436    -0.76100
C33         C  0.48649928  0.21143675  0.00115460     0.84600
N34         N  0.48677835  0.18197132  0.48568556    -0.76100
C35         C  0.48713506  0.18091977  0.45266240     0.84700
N36         N  0.48715864  0.20931051  0.43511958    -0.77800
O37         O  0.01700646  0.39113229  0.33691264    -0.86200
C38         C  0.09520581  0.08587546  0.25352060     1.13800
O39         O  0.48500503  0.43588420  0.30076434    -1.34000
O40         O  0.10131760  0.05997287  0.33740105    -0.87700
O41         O  0.45307630  0.35936998  0.33735862    -0.88400
O42         O  0.44582926  0.43649377  0.36891307    -0.77200
O43         O  0.06058343  0.47556002  0.33153713    -0.99300
C44         C  0.48534258  0.04460840  0.36061557     1.23900
O45         O  0.44521556  0.47567492  0.30084586    -1.34200
Mn46       Mn  0.48498411  0.47571456  0.26582763     1.82100
O47         O  0.48521111  0.01488302  0.36895559    -0.76300
O48         O  0.06959520  0.09215207  0.33705742    -0.85700
C49         C  0.48474989  0.04446774  0.24112419     1.14900
C50         C  0.09522839  0.08586513  0.34807418     1.09700
O51         O  0.44581157  0.43649396  0.23269948    -0.77200
O52         O  0.02482354  0.01548695  0.30080158    -1.30900
O53         O  0.40943582  0.40004979  0.27000150    -0.96400
C54         C  0.37482319  0.47555978  0.34818790     1.08400
Mn55       Mn  0.02778286  0.06960605  0.30074656     1.48600
O56         O  0.36852417  0.44365211  0.33712797    -0.85600
Mn57       Mn  0.43381510  0.38174588  0.30086771     1.49600
O58         O  0.01690414  0.39140441  0.26405840    -0.89500
C59         C  0.05380794  0.47542138  0.36047909     1.21600
C60         C  0.48488280  0.36548104  0.25342847     1.13600
Mn61       Mn  0.48505054  0.47565722  0.33578023     1.81000
O62         O  0.48489443  0.05124587  0.27006611    -0.94700
Mn63       Mn  0.03617974  0.43294872  0.30060552     1.49300
C64         C  0.48510425  0.36546710  0.34796198     1.10100
Mn65       Mn  0.44228429  0.02684724  0.30100221     1.49900
C66         C  0.37479677  0.47576871  0.25365057     1.13100
O67         O  0.40938133  0.40011371  0.33161469    -1.00500
O68         O  0.06931384  0.09196738  0.26419509    -0.90100
C69         C  0.41609602  0.40690270  0.36054816     1.24300
O70         O  0.48517969  0.05130073  0.33168663    -1.00800
O71         O  0.10149276  0.06024462  0.26453792    -0.88200
O72         O  0.40046230  0.00766928  0.26469877    -0.87900
O73         O  0.45297377  0.35918841  0.26448876    -0.87900
Mn74       Mn  0.07894534  0.01844067  0.30085312     1.47900
O75         O  0.48485424  0.01487955  0.23273119    -0.76300
C76         C  0.41622130  0.40676186  0.24106723     1.17400
O77         O  0.02422019  0.47553062  0.36887362    -0.75100
O78         O  0.02420577  0.47586902  0.23265055    -0.74700
Mn79       Mn  0.39107380  0.42448810  0.30074839     1.51100
O80         O  0.40074438  0.00757665  0.33755299    -0.87000
O81         O  0.06062929  0.47583669  0.26991747    -0.94600
O82         O  0.36869647  0.44374488  0.26425763    -0.89600
C83         C  0.05393198  0.47599676  0.24098930     1.15200
C84         C  0.48583366  0.07081179  0.38436250    -0.16600
C85         C  0.48633251  0.09460442  0.40229979     0.07500
C86         C  0.48685425  0.12388857  0.42130928     0.09400
C87         C  0.48712244  0.14966146  0.43620046    -0.17400
C88         C  0.48529483  0.34120973  0.37333704    -0.16600
C89         C  0.48568035  0.31946319  0.39317393     0.07500
C90         C  0.48622789  0.29257679  0.41471676     0.09400
C91         C  0.48662411  0.26855051  0.43177112    -0.17400
C92         C  0.48361141  0.14807258  0.16545902    -0.16600
C93         C  0.48372061  0.12251636  0.18041166     0.07500
C94         C  0.48404175  0.09367426  0.19947248     0.09400
C95         C  0.48438474  0.07029624  0.21741649    -0.17400
C96         C  0.48409116  0.26745620  0.16963177    -0.16600
C97         C  0.48426660  0.29178946  0.18664648     0.07500
C98         C  0.48453081  0.31908730  0.20816956     0.09400
C99         C  0.48473569  0.34111045  0.22801647    -0.17400
C100        C  0.48591346  0.21229534  0.03608456    -0.11300
C101        C  0.48532746  0.21201383  0.06544165    -0.12900
C102        C  0.35046324  0.47541693  0.37360761    -0.16600
C103        C  0.32844796  0.47521737  0.39346018     0.07500
C104        C  0.30115333  0.47495896  0.41498421     0.09400
C105        C  0.27681797  0.47478637  0.43199469    -0.17400
C106        C  0.15742293  0.47430178  0.43614845    -0.16600
C107        C  0.13186470  0.47440815  0.42119428     0.07500
C108        C  0.10302057  0.47472420  0.40213184     0.09400
C109        C  0.07964021  0.47506200  0.38418582    -0.17400
C110        C  0.35054493  0.47595695  0.22826988    -0.16600
C111        C  0.32880304  0.47634142  0.20842679     0.07500
C112        C  0.30191844  0.47688770  0.18688089     0.09400
C113        C  0.27788968  0.47728268  0.16982800    -0.17400
C114        C  0.15898601  0.47776868  0.16540926    -0.16600
C115        C  0.13321047  0.47749979  0.18029767     0.07500
C116        C  0.10392418  0.47697935  0.19930436     0.09400
C117        C  0.08013216  0.47648310  0.21724134    -0.17400
C118        C  0.22162660  0.47658374  0.06552579    -0.11300
C119        C  0.22134772  0.47600453  0.03616967    -0.12900
C120        C  0.31125350  0.30339407  0.43617887    -0.16600
C121        C  0.33697864  0.32893456  0.42126146     0.07500
C122        C  0.36619338  0.35775233  0.40222697     0.09400
C123        C  0.38993020  0.38110463  0.38427832    -0.17400
C124        C  0.11946324  0.11020196  0.37349930    -0.16600
C125        C  0.14124303  0.13223332  0.39336903     0.07500
C126        C  0.16821282  0.15957711  0.41490834     0.09400
C127        C  0.19232164  0.18396544  0.43192817    -0.17400
C128        C  0.31270865  0.30193120  0.16542772    -0.16600
C129        C  0.33824757  0.32765396  0.18034917     0.07500
C130        C  0.36706428  0.35686396  0.19938834     0.09400
C131        C  0.39041788  0.38059698  0.21733891    -0.17400
C132        C  0.11954244  0.11010631  0.22809350    -0.16600
C133        C  0.14157052  0.13188913  0.20822398     0.07500
C134        C  0.16890944  0.15886766  0.18668665     0.09400
C135        C  0.19329298  0.18298475  0.16966947    -0.17400
C136        C  0.24896211  0.23940010  0.06547635    -0.12000
C137        C  0.24871338  0.23964774  0.03612565    -0.12900
C138        C  0.22330558  0.21282532  0.65095101     0.82200
N139        N  0.22192282  0.21179529  0.61790774    -0.76100
C140        C  0.25034416  0.24024908  0.60039415     0.84600
N141        N  0.28008493  0.26970526  0.61590263    -0.76100
C142        C  0.28144795  0.27071424  0.64892480     0.84700
N143        N  0.25305042  0.24228785  0.66642641    -0.77800
C144        C  0.22215284  0.21398384  0.95064918     0.82200
N145        N  0.25161457  0.24373099  0.93517564    -0.76100
C146        C  0.28003496  0.27213239  0.95267893     0.84600
N147        N  0.27902102  0.27077071  0.98570113    -0.76100
C148        C  0.24956650  0.24102720  0.50120794     0.84700
N149        N  0.22111769  0.21260260  0.98369264    -0.77800
C150        C  0.24811975  0.47753701  0.65105567     0.82200
N151        N  0.24918895  0.47718897  0.61800990    -0.76100
C152        C  0.22076762  0.47716258  0.60045260     0.84600
N153        N  0.19129839  0.47743559  0.61592410    -0.76100
C154        C  0.19024735  0.47778587  0.64894627     0.84700
N155        N  0.21864180  0.47780986  0.66648725    -0.77800
C156        C  0.24685084  0.47471028  0.95070004     0.82200
N157        N  0.21707821  0.47433914  0.93520569    -0.76100
C158        C  0.18871598  0.47444132  0.95268407     0.84600
N159        N  0.19014297  0.47495591  0.98570888    -0.76100
C160        C  0.21991211  0.47533187  0.50124155     0.84700
N161        N  0.24829501  0.47522430  0.98374541    -0.77800
C162        C  0.48401558  0.23749434  0.65091996     0.82200
N163        N  0.48364357  0.20772108  0.66640901    -0.76100
C164        C  0.48374988  0.17936588  0.64892696     0.84600
N165        N  0.48427002  0.18080085  0.61590140    -0.76100
C166        C  0.48464624  0.21056959  0.60037227     0.84700
N167        N  0.48453515  0.23894574  0.61787356    -0.77800
C168        C  0.48687942  0.23878472  0.95054723     0.82200
N169        N  0.48652526  0.23985313  0.98359444    -0.76100
C170        C  0.48649899  0.21143610  0.50115488     0.84600
N171        N  0.48677848  0.18197126  0.98568565    -0.76100
C172        C  0.48713475  0.18092001  0.95266220     0.84700
N173        N  0.48715832  0.20931003  0.93511961    -0.77800
O174        O  0.01700646  0.39113241  0.83691265    -0.86200
C175        C  0.09520591  0.08587581  0.75352098     1.13800
O176        O  0.48500513  0.43588430  0.80076435    -1.34000
O177        O  0.10131756  0.05997287  0.83740136    -0.87700
O178        O  0.45307629  0.35936997  0.83735834    -0.88400
O179        O  0.44582924  0.43649352  0.86891300    -0.77200
O180        O  0.06058348  0.47556013  0.83153719    -0.99300
C181        C  0.48534252  0.04460812  0.86061580     1.23900
O182        O  0.44521564  0.47567502  0.80084587    -1.34200
Mn183      Mn  0.48498430  0.47571477  0.76582773     1.82100
O184        O  0.48521110  0.01488291  0.86895574    -0.76300
O185        O  0.06959503  0.09215193  0.83705774    -0.85700
C186        C  0.48474991  0.04446787  0.74112416     1.14900
C187        C  0.09522821  0.08586500  0.84807446     1.09700
O188        O  0.44581182  0.43649426  0.73269950    -0.77200
O189        O  0.02482363  0.01548709  0.80080174    -1.30900
O190        O  0.40943579  0.40004994  0.77000137    -0.96400
C191        C  0.37482315  0.47555976  0.84818796     1.08400
Mn192      Mn  0.02778282  0.06960611  0.80074684     1.48600
O193        O  0.36852416  0.44365218  0.83712798    -0.85600
Mn194      Mn  0.43381512  0.38174599  0.80086757     1.49600
O195        O  0.01690423  0.39140462  0.76405838    -0.89500
C196        C  0.05380787  0.47542146  0.86047929     1.21600
C197        C  0.48488289  0.36548138  0.75342842     1.13600
Mn198      Mn  0.48505056  0.47565716  0.83578026     1.81000
O199        O  0.48489450  0.05124607  0.77006638    -0.94700
Mn200      Mn  0.03617983  0.43294882  0.80060556     1.49300
C201        C  0.48510423  0.36546712  0.84796188     1.10100
Mn202      Mn  0.44228437  0.02684734  0.80100243     1.49900
C203        C  0.37479697  0.47576917  0.75365072     1.13100
O204        O  0.40938122  0.40011363  0.83161458    -1.00500
O205        O  0.06931391  0.09196761  0.76419546    -0.90100
C206        C  0.41609598  0.40690254  0.86054804     1.24300
O207        O  0.48517974  0.05130070  0.83168685    -1.00800
O208        O  0.10149282  0.06024484  0.76453820    -0.88200
O209        O  0.40046232  0.00766950  0.76469902    -0.87900
O210        O  0.45297391  0.35918867  0.76448856    -0.87900
Mn211      Mn  0.07894543  0.01844085  0.80085332     1.47900
O212        O  0.48485435  0.01487974  0.73273139    -0.76300
C213        C  0.41622146  0.40676221  0.74106710     1.17400
O214        O  0.02421998  0.47553037  0.86887367    -0.75100
O215        O  0.02420596  0.47586924  0.73265074    -0.74700
Mn216      Mn  0.39107382  0.42448826  0.80074832     1.51100
O217        O  0.40074438  0.00757662  0.83755319    -0.87000
O218        O  0.06062947  0.47583684  0.76991768    -0.94600
O219        O  0.36869658  0.44374522  0.76425768    -0.89600
C220        C  0.05393208  0.47599703  0.74098925     1.15200
C221        C  0.48583347  0.07081162  0.88436279    -0.16600
C222        C  0.48633222  0.09460406  0.90229981     0.07500
C223        C  0.48685397  0.12388851  0.92130953     0.09400
C224        C  0.48712203  0.14966099  0.93620044    -0.17400
C225        C  0.48529466  0.34120972  0.87333684    -0.16600
C226        C  0.48568043  0.31946312  0.89317377     0.07500
C227        C  0.48622780  0.29257686  0.91471644     0.09400
C228        C  0.48662403  0.26855021  0.93177101    -0.17400
C229        C  0.48361126  0.14807260  0.66545908    -0.16600
C230        C  0.48372068  0.12251638  0.68041188     0.07500
C231        C  0.48404186  0.09367457  0.69947266     0.09400
C232        C  0.48438494  0.07029633  0.71741676    -0.17400
C233        C  0.48409080  0.26745616  0.66963172    -0.16600
C234        C  0.48426644  0.29178932  0.68664638     0.07500
C235        C  0.48453084  0.31908754  0.70816952     0.09400
C236        C  0.48473596  0.34111069  0.72801621    -0.17400
C237        C  0.48591299  0.21229499  0.53608448    -0.11300
C238        C  0.48532686  0.21201329  0.56544176    -0.12900
C239        C  0.35046312  0.47541680  0.87360770    -0.16600
C240        C  0.32844789  0.47521721  0.89346022     0.07500
C241        C  0.30115309  0.47495874  0.91498430     0.09400
C242        C  0.27681788  0.47478610  0.93199468    -0.17400
C243        C  0.15742283  0.47430153  0.93614844    -0.16600
C244        C  0.13186466  0.47440806  0.92119439     0.07500
C245        C  0.10302050  0.47472411  0.90213195     0.09400
C246        C  0.07964007  0.47506198  0.88418596    -0.17400
C247        C  0.35054506  0.47595733  0.72826990    -0.16600
C248        C  0.32880333  0.47634196  0.70842691     0.07500
C249        C  0.30191872  0.47688834  0.68688090     0.09400
C250        C  0.27789007  0.47728328  0.66982788    -0.17400
C251        C  0.15898636  0.47776937  0.66540922    -0.16600
C252        C  0.13321085  0.47750040  0.68029765     0.07500
C253        C  0.10392448  0.47697983  0.69930441     0.09400
C254        C  0.08013249  0.47648360  0.71724149    -0.17400
C255        C  0.22162711  0.47658452  0.56552564    -0.11300
C256        C  0.22134807  0.47600521  0.53616972    -0.12900
C257        C  0.31125298  0.30339454  0.93617872    -0.16600
C258        C  0.33697838  0.32893486  0.92126134     0.07500
C259        C  0.36619320  0.35775250  0.90222689     0.09400
C260        C  0.38993004  0.38110459  0.88427818    -0.17400
C261        C  0.11946302  0.11020184  0.87349977    -0.16600
C262        C  0.14124268  0.13223312  0.89336940     0.07500
C263        C  0.16821242  0.15957737  0.91490867     0.09400
C264        C  0.19232112  0.18396588  0.93192833    -0.17400
C265        C  0.31270861  0.30193188  0.66542773    -0.16600
C266        C  0.33824748  0.32765455  0.68034888     0.07500
C267        C  0.36706438  0.35686450  0.69938823     0.09400
C268        C  0.39041796  0.38059747  0.71733872    -0.17400
C269        C  0.11954272  0.11010678  0.72809395    -0.16600
C270        C  0.14157066  0.13188954  0.70822437     0.07500
C271        C  0.16890949  0.15886818  0.68668699     0.09400
C272        C  0.19329310  0.18298536  0.66966979    -0.17400
C273        C  0.24896274  0.23939931  0.56547653    -0.12000
C274        C  0.24871407  0.23964677  0.53612539    -0.12900
C275        C  0.22330567  0.71282510  0.15095104     0.82200
N276        N  0.22192250  0.71179537  0.11790753    -0.76100
C277        C  0.25034397  0.74024961  0.10039440     0.84600
N278        N  0.28008458  0.76970524  0.11590254    -0.76100
C279        C  0.28144815  0.77071394  0.14892505     0.84700
N280        N  0.25305050  0.74228715  0.16642630    -0.77800
C281        C  0.22215344  0.71398322  0.45064928     0.82200
N282        N  0.25161510  0.74373037  0.43517558    -0.76100
C283        C  0.28003562  0.77213182  0.45267926     0.84600
N284        N  0.27902172  0.77076987  0.48570107    -0.76100
C285        C  0.24956568  0.74102806  0.00120768     0.84700
N286        N  0.22111834  0.71260172  0.48369242    -0.77800
C287        C  0.24811924  0.97753633  0.15105568     0.82200
N288        N  0.24918861  0.97718818  0.11800994    -0.76100
C289        C  0.22076704  0.97716181  0.10045258     0.84600
N290        N  0.19129801  0.97743477  0.11592417    -0.76100
C291        C  0.19024675  0.97778504  0.14894627     0.84700
N292        N  0.21864159  0.97780920  0.16648728    -0.77800
C293        C  0.24685115  0.97471066  0.45069971     0.82200
N294        N  0.21707831  0.97433941  0.43520571    -0.76100
C295        C  0.18871625  0.97444157  0.45268373     0.84600
N296        N  0.19014323  0.97495640  0.48570892    -0.76100
C297        C  0.21991170  0.97533125  0.00124190     0.84700
N298        N  0.24829522  0.97522473  0.48374555    -0.77800
C299        C  0.48401598  0.73749457  0.15091991     0.82200
N300        N  0.48364379  0.70772108  0.16640896    -0.76100
C301        C  0.48375021  0.67936606  0.14892667     0.84600
N302        N  0.48427040  0.68080099  0.11590133    -0.76100
C303        C  0.48464683  0.71057001  0.10037217     0.84700
N304        N  0.48453573  0.73894601  0.11787360    -0.77800
C305        C  0.48687940  0.73878438  0.45054762     0.82200
N306        N  0.48652503  0.73985316  0.48359433    -0.76100
C307        C  0.48649936  0.71143672  0.00115460     0.84600
N308        N  0.48677849  0.68197137  0.48568557    -0.76100
C309        C  0.48713503  0.68091979  0.45266240     0.84700
N310        N  0.48715864  0.70931045  0.43511957    -0.77800
O311        O  0.01700640  0.89113221  0.33691261    -0.86200
C312        C  0.09520572  0.58587558  0.25352058     1.13800
O313        O  0.48500502  0.93588416  0.30076435    -1.34000
O314        O  0.10131757  0.55997287  0.33740109    -0.87700
O315        O  0.45307623  0.85936992  0.33735863    -0.88400
O316        O  0.44582924  0.93649376  0.36891307    -0.77200
O317        O  0.06058341  0.97555997  0.33153713    -0.99300
C318        C  0.48534256  0.54460829  0.36061561     1.23900
O319        O  0.44521558  0.97567491  0.30084586    -1.34200
Mn320      Mn  0.48498413  0.97571452  0.26582763     1.82100
O321        O  0.48521112  0.51488306  0.36895558    -0.76300
O322        O  0.06959524  0.59215214  0.33705740    -0.85700
C323        C  0.48474981  0.54446782  0.24112421     1.14900
C324        C  0.09522836  0.58586513  0.34807414     1.09700
O325        O  0.44581165  0.93649393  0.23269950    -0.77200
O326        O  0.02482359  0.51548702  0.30080158    -1.30900
O327        O  0.40943575  0.90004980  0.27000150    -0.96400
C328        C  0.37482317  0.97555983  0.34818787     1.08400
Mn329      Mn  0.02778287  0.56960611  0.30074657     1.48600
O330        O  0.36852421  0.94365216  0.33712796    -0.85600
Mn331      Mn  0.43381504  0.88174585  0.30086773     1.49600
O332        O  0.01690412  0.89140438  0.26405837    -0.89500
C333        C  0.05380793  0.97542137  0.36047910     1.21600
C334        C  0.48488281  0.86548106  0.25342848     1.13600
Mn335      Mn  0.48505055  0.97565720  0.33578024     1.81000
O336        O  0.48489443  0.55124597  0.27006611    -0.94700
Mn337      Mn  0.03617970  0.93294865  0.30060552     1.49300
C338        C  0.48510420  0.86546702  0.34796199     1.10100
Mn339      Mn  0.44228429  0.52684729  0.30100224     1.49900
C340        C  0.37479685  0.97576877  0.25365063     1.13100
O341        O  0.40938124  0.90011368  0.33161468    -1.00500
O342        O  0.06931387  0.59196748  0.26419508    -0.90100
C343        C  0.41609601  0.90690269  0.36054820     1.24300
O344        O  0.48517973  0.55130078  0.33168663    -1.00800
O345        O  0.10149268  0.56024462  0.26453795    -0.88200
O346        O  0.40046229  0.50766927  0.26469880    -0.87900
O347        O  0.45297373  0.85918834  0.26448879    -0.87900
Mn348      Mn  0.07894536  0.51844074  0.30085314     1.47900
O349        O  0.48485414  0.51487955  0.23273123    -0.76300
C350        C  0.41622130  0.90676188  0.24106720     1.17400
O351        O  0.02422013  0.97553054  0.36887363    -0.75100
O352        O  0.02420571  0.97586897  0.23265058    -0.74700
Mn353      Mn  0.39107380  0.92448818  0.30074840     1.51100
O354        O  0.40074437  0.50757664  0.33755302    -0.87000
O355        O  0.06062926  0.97583661  0.26991746    -0.94600
O356        O  0.36869650  0.94374494  0.26425768    -0.89600
C357        C  0.05393201  0.97599672  0.24098935     1.15200
C358        C  0.48583362  0.57081184  0.38436256    -0.16600
C359        C  0.48633246  0.59460430  0.40229972     0.07500
C360        C  0.48685427  0.62388867  0.42130934     0.09400
C361        C  0.48712245  0.64966134  0.43620047    -0.17400
C362        C  0.48529481  0.84120970  0.37333700    -0.16600
C363        C  0.48568040  0.81946316  0.39317392     0.07500
C364        C  0.48622784  0.79257678  0.41471671     0.09400
C365        C  0.48662414  0.76855049  0.43177111    -0.17400
C366        C  0.48361149  0.64807262  0.16545899    -0.16600
C367        C  0.48372066  0.62251642  0.18041160     0.07500
C368        C  0.48404184  0.59367434  0.19947238     0.09400
C369        C  0.48438489  0.57029634  0.21741644    -0.17400
C370        C  0.48409114  0.76745625  0.16963178    -0.16600
C371        C  0.48426665  0.79178949  0.18664652     0.07500
C372        C  0.48453082  0.81908732  0.20816962     0.09400
C373        C  0.48473566  0.84111045  0.22801647    -0.17400
C374        C  0.48591366  0.71229558  0.03608456    -0.11300
C375        C  0.48532759  0.71201391  0.06544164    -0.12900
C376        C  0.35046316  0.97541686  0.37360757    -0.16600
C377        C  0.32844795  0.97521741  0.39346023     0.07500
C378        C  0.30115342  0.97495905  0.41498429     0.09400
C379        C  0.27681784  0.97478628  0.43199468    -0.17400
C380        C  0.15742296  0.97430179  0.43614840    -0.16600
C381        C  0.13186469  0.97440811  0.42119428     0.07500
C382        C  0.10302051  0.97472412  0.40213185     0.09400
C383        C  0.07964016  0.97506194  0.38418584    -0.17400
C384        C  0.35054487  0.97595690  0.22826982    -0.16600
C385        C  0.32880317  0.97634146  0.20842683     0.07500
C386        C  0.30191833  0.97688766  0.18688083     0.09400
C387        C  0.27788975  0.97728259  0.16982801    -0.17400
C388        C  0.15898606  0.97776862  0.16540925    -0.16600
C389        C  0.13321046  0.97749972  0.18029764     0.07500
C390        C  0.10392421  0.97697928  0.19930434     0.09400
C391        C  0.08013220  0.97648309  0.21724137    -0.17400
C392        C  0.22162664  0.97658370  0.06552578    -0.11300
C393        C  0.22134771  0.97600455  0.03616968    -0.12900
C394        C  0.31125344  0.80339399  0.43617888    -0.16600
C395        C  0.33697870  0.82893449  0.42126144     0.07500
C396        C  0.36619332  0.85775225  0.40222693     0.09400
C397        C  0.38993018  0.88110462  0.38427829    -0.17400
C398        C  0.11946327  0.61020200  0.37349932    -0.16600
C399        C  0.14124294  0.63223322  0.39336899     0.07500
C400        C  0.16821282  0.65957716  0.41490833     0.09400
C401        C  0.19232155  0.68396538  0.43192813    -0.17400
C402        C  0.31270871  0.80193118  0.16542771    -0.16600
C403        C  0.33824753  0.82765397  0.18034913     0.07500
C404        C  0.36706432  0.85686391  0.19938835     0.09400
C405        C  0.39041791  0.88059701  0.21733887    -0.17400
C406        C  0.11954245  0.61010630  0.22809351    -0.16600
C407        C  0.14157059  0.63188909  0.20822395     0.07500
C408        C  0.16890942  0.65886761  0.18668662     0.09400
C409        C  0.19329308  0.68298476  0.16966948    -0.17400
C410        C  0.24896213  0.73940013  0.06547636    -0.12000
C411        C  0.24871335  0.73964770  0.03612566    -0.12900
C412        C  0.22330560  0.71282537  0.65095099     0.82200
N413        N  0.22192285  0.71179527  0.61790778    -0.76100
C414        C  0.25034423  0.74024916  0.60039415     0.84600
N415        N  0.28008487  0.76970525  0.61590263    -0.76100
C416        C  0.28144801  0.77071431  0.64892479     0.84700
N417        N  0.25305045  0.74228783  0.66642644    -0.77800
C418        C  0.22215277  0.71398377  0.95064915     0.82200
N419        N  0.25161457  0.74373097  0.93517567    -0.76100
C420        C  0.28003491  0.77213233  0.95267893     0.84600
N421        N  0.27902099  0.77077068  0.98570115    -0.76100
C422        C  0.24956649  0.74102719  0.50120794     0.84700
N423        N  0.22111766  0.71260257  0.98369265    -0.77800
C424        C  0.24811986  0.97753701  0.65105567     0.82200
N425        N  0.24918894  0.97718904  0.61800990    -0.76100
C426        C  0.22076775  0.97716260  0.60045260     0.84600
N427        N  0.19129831  0.97743560  0.61592411    -0.76100
C428        C  0.19024751  0.97778603  0.64894623     0.84700
N429        N  0.21864179  0.97780996  0.66648725    -0.77800
C430        C  0.24685089  0.97471023  0.95070002     0.82200
N431        N  0.21707815  0.97433909  0.93520571    -0.76100
C432        C  0.18871607  0.97444140  0.95268403     0.84600
N433        N  0.19014297  0.97495598  0.98570889    -0.76100
C434        C  0.21991211  0.97533186  0.50124160     0.84700
N435        N  0.24829498  0.97522430  0.98374545    -0.77800
C436        C  0.48401549  0.73749437  0.65091994     0.82200
N437        N  0.48364352  0.70772097  0.66640901    -0.76100
C438        C  0.48374986  0.67936599  0.64892689     0.84600
N439        N  0.48426998  0.68080075  0.61590140    -0.76100
C440        C  0.48464626  0.71056973  0.60037225     0.84700
N441        N  0.48453510  0.73894568  0.61787356    -0.77800
C442        C  0.48687938  0.73878467  0.95054728     0.82200
N443        N  0.48652534  0.73985323  0.98359440    -0.76100
C444        C  0.48649906  0.71143609  0.50115489     0.84600
N445        N  0.48677852  0.68197132  0.98568564    -0.76100
C446        C  0.48713482  0.68092005  0.95266219     0.84700
N447        N  0.48715830  0.70931009  0.93511958    -0.77800
O448        O  0.01700646  0.89113243  0.83691260    -0.86200
C449        C  0.09520596  0.58587582  0.75352094     1.13800
O450        O  0.48500509  0.93588432  0.80076438    -1.34000
O451        O  0.10131758  0.55997286  0.83740134    -0.87700
O452        O  0.45307627  0.85937005  0.83735835    -0.88400
O453        O  0.44582924  0.93649359  0.86891303    -0.77200
O454        O  0.06058339  0.97556007  0.83153718    -0.99300
C455        C  0.48534251  0.54460815  0.86061579     1.23900
O456        O  0.44521566  0.97567503  0.80084588    -1.34200
Mn457      Mn  0.48498429  0.97571474  0.76582771     1.82100
O458        O  0.48521109  0.51488289  0.86895567    -0.76300
O459        O  0.06959511  0.59215198  0.83705769    -0.85700
C460        C  0.48475000  0.54446797  0.74112424     1.14900
C461        C  0.09522826  0.58586499  0.84807447     1.09700
O462        O  0.44581185  0.93649424  0.73269949    -0.77200
O463        O  0.02482368  0.51548711  0.80080175    -1.30900
O464        O  0.40943583  0.90004998  0.77000137    -0.96400
C465        C  0.37482305  0.97555973  0.84818797     1.08400
Mn466      Mn  0.02778287  0.56960614  0.80074684     1.48600
O467        O  0.36852412  0.94365212  0.83712796    -0.85600
Mn468      Mn  0.43381508  0.88174601  0.80086758     1.49600
O469        O  0.01690420  0.89140462  0.76405841    -0.89500
C470        C  0.05380779  0.97542135  0.86047929     1.21600
C471        C  0.48488296  0.86548139  0.75342844     1.13600
Mn472      Mn  0.48505055  0.97565720  0.83578030     1.81000
O473        O  0.48489451  0.55124615  0.77006639    -0.94700
Mn474      Mn  0.03617984  0.93294887  0.80060553     1.49300
C475        C  0.48510408  0.86546714  0.84796186     1.10100
Mn476      Mn  0.44228435  0.52684736  0.80100241     1.49900
C477        C  0.37479690  0.97576897  0.75365069     1.13100
O478        O  0.40938122  0.90011365  0.83161459    -1.00500
O479        O  0.06931399  0.59196766  0.76419549    -0.90100
C480        C  0.41609601  0.90690261  0.86054807     1.24300
O481        O  0.48517969  0.55130074  0.83168686    -1.00800
O482        O  0.10149289  0.56024488  0.76453819    -0.88200
O483        O  0.40046235  0.50766959  0.76469899    -0.87900
O484        O  0.45297393  0.85918875  0.76448857    -0.87900
Mn485      Mn  0.07894548  0.51844086  0.80085328     1.47900
O486        O  0.48485439  0.51487985  0.73273143    -0.76300
C487        C  0.41622152  0.90676224  0.74106705     1.17400
O488        O  0.02422004  0.97553051  0.86887369    -0.75100
O489        O  0.02420591  0.97586922  0.73265071    -0.74700
Mn490      Mn  0.39107384  0.92448827  0.80074832     1.51100
O491        O  0.40074438  0.50757667  0.83755318    -0.87000
O492        O  0.06062947  0.97583692  0.76991762    -0.94600
O493        O  0.36869649  0.94374513  0.76425762    -0.89600
C494        C  0.05393213  0.97599706  0.74098935     1.15200
C495        C  0.48583349  0.57081163  0.88436289    -0.16600
C496        C  0.48633215  0.59460401  0.90229987     0.07500
C497        C  0.48685390  0.62388852  0.92130954     0.09400
C498        C  0.48712201  0.64966107  0.93620038    -0.17400
C499        C  0.48529464  0.84120975  0.87333686    -0.16600
C500        C  0.48568044  0.81946318  0.89317375     0.07500
C501        C  0.48622783  0.79257687  0.91471655     0.09400
C502        C  0.48662410  0.76855037  0.93177106    -0.17400
C503        C  0.48361124  0.64807253  0.66545910    -0.16600
C504        C  0.48372068  0.62251648  0.68041184     0.07500
C505        C  0.48404180  0.59367447  0.69947264     0.09400
C506        C  0.48438499  0.57029646  0.71741671    -0.17400
C507        C  0.48409073  0.76745607  0.66963171    -0.16600
C508        C  0.48426638  0.79178930  0.68664641     0.07500
C509        C  0.48453080  0.81908749  0.70816953     0.09400
C510        C  0.48473593  0.84111064  0.72801626    -0.17400
C511        C  0.48591297  0.71229494  0.53608449    -0.11300
C512        C  0.48532702  0.71201342  0.56544176    -0.12900
C513        C  0.35046315  0.97541676  0.87360768    -0.16600
C514        C  0.32844779  0.97521717  0.89346031     0.07500
C515        C  0.30115313  0.97495867  0.91498426     0.09400
C516        C  0.27681772  0.97478601  0.93199471    -0.17400
C517        C  0.15742286  0.97430160  0.93614841    -0.16600
C518        C  0.13186469  0.97440814  0.92119439     0.07500
C519        C  0.10302054  0.97472422  0.90213194     0.09400
C520        C  0.07964004  0.97506196  0.88418593    -0.17400
C521        C  0.35054505  0.97595730  0.72826988    -0.16600
C522        C  0.32880331  0.97634190  0.70842696     0.07500
C523        C  0.30191871  0.97688829  0.68688094     0.09400
C524        C  0.27789009  0.97728333  0.66982791    -0.17400
C525        C  0.15898627  0.97776933  0.66540925    -0.16600
C526        C  0.13321092  0.97750049  0.68029761     0.07500
C527        C  0.10392450  0.97697993  0.69930447     0.09400
C528        C  0.08013248  0.97648353  0.71724150    -0.17400
C529        C  0.22162707  0.97658442  0.56552567    -0.11300
C530        C  0.22134803  0.97600526  0.53616974    -0.12900
C531        C  0.31125296  0.80339452  0.93617872    -0.16600
C532        C  0.33697835  0.82893483  0.92126131     0.07500
C533        C  0.36619318  0.85775247  0.90222682     0.09400
C534        C  0.38993005  0.88110462  0.88427818    -0.17400
C535        C  0.11946300  0.61020183  0.87349973    -0.16600
C536        C  0.14124265  0.63223319  0.89336939     0.07500
C537        C  0.16821233  0.65957728  0.91490867     0.09400
C538        C  0.19232111  0.68396593  0.93192834    -0.17400
C539        C  0.31270859  0.80193196  0.66542767    -0.16600
C540        C  0.33824744  0.82765458  0.68034886     0.07500
C541        C  0.36706434  0.85686453  0.69938819     0.09400
C542        C  0.39041797  0.88059754  0.71733869    -0.17400
C543        C  0.11954266  0.61010666  0.72809390    -0.16600
C544        C  0.14157071  0.63188963  0.70822435     0.07500
C545        C  0.16890948  0.65886824  0.68668700     0.09400
C546        C  0.19329312  0.68298529  0.66966976    -0.17400
C547        C  0.24896272  0.73939933  0.56547655    -0.12000
C548        C  0.24871402  0.73964673  0.53612541    -0.12900
C549        C  0.72330582  0.21282516  0.15095110     0.82200
N550        N  0.72192240  0.21179534  0.11790752    -0.76100
C551        C  0.75034395  0.24024970  0.10039441     0.84600
N552        N  0.78008451  0.26970517  0.11590253    -0.76100
C553        C  0.78144823  0.27071410  0.14892502     0.84700
N554        N  0.75305035  0.24228707  0.16642628    -0.77800
C555        C  0.72215343  0.21398334  0.45064925     0.82200
N556        N  0.75161498  0.24373042  0.43517558    -0.76100
C557        C  0.78003568  0.27213186  0.45267925     0.84600
N558        N  0.77902165  0.27076986  0.48570105    -0.76100
C559        C  0.74956552  0.24102799  0.00120768     0.84700
N560        N  0.72111827  0.21260174  0.48369243    -0.77800
C561        C  0.74811926  0.47753640  0.15105570     0.82200
N562        N  0.74918869  0.47718825  0.11800997    -0.76100
C563        C  0.72076702  0.47716188  0.10045256     0.84600
N564        N  0.69129807  0.47743483  0.11592412    -0.76100
C565        C  0.69024669  0.47778510  0.14894627     0.84700
N566        N  0.71864162  0.47780926  0.16648725    -0.77800
C567        C  0.74685093  0.47471061  0.45069971     0.82200
N568        N  0.71707844  0.47433934  0.43520569    -0.76100
C569        C  0.68871608  0.47444167  0.45268378     0.84600
N570        N  0.69014332  0.47495639  0.48570893    -0.76100
C571        C  0.71991163  0.47533135  0.00124191     0.84700
N572        N  0.74829534  0.47522478  0.48374551    -0.77800
C573        C  0.98401595  0.23749450  0.15091991     0.82200
N574        N  0.98364387  0.20772118  0.16640895    -0.76100
C575        C  0.98375021  0.17936601  0.14892663     0.84600
N576        N  0.98427037  0.18080099  0.11590135    -0.76100
C577        C  0.98464674  0.21056999  0.10037216     0.84700
N578        N  0.98453566  0.23894602  0.11787357    -0.77800
C579        C  0.98687940  0.23878448  0.45054761     0.82200
N580        N  0.98652505  0.23985312  0.48359436    -0.76100
C581        C  0.98649928  0.21143670  0.00115460     0.84600
N582        N  0.98677835  0.18197124  0.48568555    -0.76100
C583        C  0.98713494  0.18091982  0.45266240     0.84700
N584        N  0.98715864  0.20931042  0.43511957    -0.77800
O585        O  0.51700644  0.39113228  0.33691263    -0.86200
C586        C  0.59520581  0.08587547  0.25352059     1.13800
O587        O  0.98500505  0.43588420  0.30076434    -1.34000
O588        O  0.60131759  0.05997287  0.33740105    -0.87700
O589        O  0.95307630  0.35936997  0.33735861    -0.88400
O590        O  0.94582928  0.43649371  0.36891307    -0.77200
O591        O  0.56058345  0.47556001  0.33153713    -0.99300
C592        C  0.98534259  0.04460839  0.36061558     1.23900
O593        O  0.94521561  0.47567493  0.30084587    -1.34200
Mn594      Mn  0.98498416  0.47571456  0.26582763     1.82100
O595        O  0.98521116  0.01488303  0.36895559    -0.76300
O596        O  0.56959519  0.09215208  0.33705743    -0.85700
C597        C  0.98474990  0.04446778  0.24112420     1.14900
C598        C  0.59522832  0.08586513  0.34807416     1.09700
O599        O  0.94581160  0.43649394  0.23269950    -0.77200
O600        O  0.52482353  0.01548695  0.30080159    -1.30900
O601        O  0.90943579  0.40004980  0.27000150    -0.96400
C602        C  0.87482310  0.47555977  0.34818789     1.08400
Mn603      Mn  0.52778278  0.06960604  0.30074656     1.48600
O604        O  0.86852409  0.44365210  0.33712797    -0.85600
Mn605      Mn  0.93381508  0.38174589  0.30086772     1.49600
O606        O  0.51690411  0.39140440  0.26405840    -0.89500
C607        C  0.55380786  0.47542138  0.36047917     1.21600
C608        C  0.98488285  0.36548106  0.25342849     1.13600
Mn609      Mn  0.98505058  0.47565721  0.33578023     1.81000
O610        O  0.98489449  0.05124591  0.27006611    -0.94700
Mn611      Mn  0.53617972  0.43294871  0.30060552     1.49300
C612        C  0.98510424  0.36546710  0.34796198     1.10100
Mn613      Mn  0.94228432  0.02684726  0.30100223     1.49900
C614        C  0.87479684  0.47576871  0.25365060     1.13100
O615        O  0.90938130  0.40011370  0.33161469    -1.00500
O616        O  0.56931380  0.09196734  0.26419511    -0.90100
C617        C  0.91609600  0.40690269  0.36054815     1.24300
O618        O  0.98517972  0.05130074  0.33168664    -1.00800
O619        O  0.60149278  0.06024462  0.26453792    -0.88200
O620        O  0.90046229  0.00766928  0.26469877    -0.87900
O621        O  0.95297381  0.35918846  0.26448879    -0.87900
Mn622      Mn  0.57894535  0.01844068  0.30085314     1.47900
O623        O  0.98485414  0.01487952  0.23273119    -0.76300
C624        C  0.91622129  0.40676187  0.24106724     1.17400
O625        O  0.52422019  0.47553062  0.36887364    -0.75100
O626        O  0.52420573  0.47586900  0.23265057    -0.74700
Mn627      Mn  0.89107382  0.42448813  0.30074842     1.51100
O628        O  0.90074442  0.00757666  0.33755302    -0.87000
O629        O  0.56062929  0.47583668  0.26991748    -0.94600
O630        O  0.86869641  0.44374490  0.26425766    -0.89600
C631        C  0.55393197  0.47599676  0.24098927     1.15200
C632        C  0.98583372  0.07081180  0.38436253    -0.16600
C633        C  0.98633258  0.09460443  0.40229980     0.07500
C634        C  0.98685432  0.12388863  0.42130930     0.09400
C635        C  0.98712241  0.14966140  0.43620043    -0.17400
C636        C  0.98529486  0.34120973  0.37333702    -0.16600
C637        C  0.98568042  0.31946321  0.39317392     0.07500
C638        C  0.98622796  0.29257685  0.41471674     0.09400
C639        C  0.98662414  0.26855049  0.43177115    -0.17400
C640        C  0.98361143  0.14807258  0.16545903    -0.16600
C641        C  0.98372068  0.12251641  0.18041162     0.07500
C642        C  0.98404183  0.09367429  0.19947244     0.09400
C643        C  0.98438477  0.07029627  0.21741647    -0.17400
C644        C  0.98409109  0.26745615  0.16963174    -0.16600
C645        C  0.98426654  0.29178942  0.18664646     0.07500
C646        C  0.98453077  0.31908727  0.20816953     0.09400
C647        C  0.98473567  0.34111044  0.22801645    -0.17400
C648        C  0.98591340  0.21229534  0.03608457    -0.11300
C649        C  0.98532746  0.21201385  0.06544166    -0.12900
C650        C  0.85046327  0.47541697  0.37360761    -0.16600
C651        C  0.82844792  0.47521735  0.39346021     0.07500
C652        C  0.80115333  0.47495896  0.41498429     0.09400
C653        C  0.77681803  0.47478637  0.43199468    -0.17400
C654        C  0.65742297  0.47430178  0.43614839    -0.16600
C655        C  0.63186468  0.47440815  0.42119423     0.07500
C656        C  0.60302054  0.47472420  0.40213178     0.09400
C657        C  0.57964016  0.47506200  0.38418584    -0.17400
C658        C  0.85054492  0.47595699  0.22826982    -0.16600
C659        C  0.82880314  0.47634143  0.20842686     0.07500
C660        C  0.80191837  0.47688770  0.18688084     0.09400
C661        C  0.77788980  0.47728268  0.16982806    -0.17400
C662        C  0.65898611  0.47776868  0.16540922    -0.16600
C663        C  0.63321042  0.47749979  0.18029769     0.07500
C664        C  0.60392425  0.47697935  0.19930437     0.09400
C665        C  0.58013213  0.47648310  0.21724138    -0.17400
C666        C  0.72162670  0.47658374  0.06552579    -0.11300
C667        C  0.72134780  0.47600453  0.03616967    -0.12900
C668        C  0.81125337  0.30339406  0.43617887    -0.16600
C669        C  0.83697862  0.32893461  0.42126142     0.07500
C670        C  0.86619334  0.35775233  0.40222697     0.09400
C671        C  0.88993014  0.38110467  0.38427829    -0.17400
C672        C  0.61946328  0.11020197  0.37349934    -0.16600
C673        C  0.64124289  0.13223330  0.39336903     0.07500
C674        C  0.66821279  0.15957719  0.41490837     0.09400
C675        C  0.69232151  0.18396547  0.43192814    -0.17400
C676        C  0.81270859  0.30193118  0.16542770    -0.16600
C677        C  0.83824761  0.32765395  0.18034917     0.07500
C678        C  0.86706431  0.35686391  0.19938831     0.09400
C679        C  0.89041792  0.38059696  0.21733891    -0.17400
C680        C  0.61954244  0.11010628  0.22809350    -0.16600
C681        C  0.64157049  0.13188914  0.20822394     0.07500
C682        C  0.66890930  0.15886772  0.18668661     0.09400
C683        C  0.69329300  0.18298477  0.16966950    -0.17400
C684        C  0.74896204  0.23940011  0.06547636    -0.12000
C685        C  0.74871334  0.23964777  0.03612566    -0.12900
C686        C  0.72330569  0.21282531  0.65095101     0.82200
N687        N  0.72192275  0.21179528  0.61790776    -0.76100
C688        C  0.75034417  0.24024924  0.60039416     0.84600
N689        N  0.78008479  0.26970529  0.61590262    -0.76100
C690        C  0.78144793  0.27071439  0.64892480     0.84700
N691        N  0.75305043  0.24228781  0.66642642    -0.77800
C692        C  0.72215262  0.21398371  0.95064919     0.82200
N693        N  0.75161463  0.24373106  0.93517565    -0.76100
C694        C  0.78003474  0.27213223  0.95267893     0.84600
N695        N  0.77902101  0.27077075  0.98570112    -0.76100
C696        C  0.74956643  0.24102727  0.50120792     0.84700
N697        N  0.72111770  0.21260263  0.98369266    -0.77800
C698        C  0.74811952  0.47753701  0.65105572     0.82200
N699        N  0.74918897  0.47718897  0.61800994    -0.76100
C700        C  0.72076736  0.47716258  0.60045261     0.84600
N701        N  0.69129838  0.47743559  0.61592407    -0.76100
C702        C  0.69024703  0.47778587  0.64894627     0.84700
N703        N  0.71864184  0.47780986  0.66648724    -0.77800
C704        C  0.74685071  0.47471027  0.95070001     0.82200
N705        N  0.71707833  0.47433914  0.93520568    -0.76100
C706        C  0.68871588  0.47444134  0.95268410     0.84600
N707        N  0.69014304  0.47495591  0.98570888    -0.76100
C708        C  0.71991194  0.47533187  0.50124162     0.84700
N709        N  0.74829510  0.47522430  0.98374539    -0.77800
C710        C  0.98401565  0.23749439  0.65091994     0.82200
N711        N  0.98364351  0.20772105  0.66640901    -0.76100
C712        C  0.98374981  0.17936587  0.64892691     0.84600
N713        N  0.98426992  0.18080077  0.61590142    -0.76100
C714        C  0.98464618  0.21056959  0.60037225     0.84700
N715        N  0.98453524  0.23894579  0.61787357    -0.77800
C716        C  0.98687934  0.23878463  0.95054725     0.82200
N717        N  0.98652521  0.23985312  0.98359442    -0.76100
C718        C  0.98649900  0.21143620  0.50115489     0.84600
N719        N  0.98677846  0.18197126  0.98568565    -0.76100
C720        C  0.98713484  0.18092006  0.95266220     0.84700
N721        N  0.98715841  0.20931010  0.93511960    -0.77800
O722        O  0.51700647  0.39113238  0.83691266    -0.86200
C723        C  0.59520597  0.08587579  0.75352091     1.13800
O724        O  0.98500513  0.43588429  0.80076436    -1.34000
O725        O  0.60131756  0.05997287  0.83740138    -0.87700
O726        O  0.95307632  0.35936997  0.83735836    -0.88400
O727        O  0.94582914  0.43649356  0.86891301    -0.77200
O728        O  0.56058350  0.47556013  0.83153722    -0.99300
C729        C  0.98534245  0.04460809  0.86061578     1.23900
O730        O  0.94521566  0.47567502  0.80084585    -1.34200
Mn731      Mn  0.98498431  0.47571476  0.76582771     1.82100
O732        O  0.98521105  0.01488292  0.86895575    -0.76300
O733        O  0.56959508  0.09215195  0.83705770    -0.85700
C734        C  0.98474996  0.04446784  0.74112419     1.14900
C735        C  0.59522821  0.08586500  0.84807444     1.09700
O736        O  0.94581183  0.43649424  0.73269949    -0.77200
O737        O  0.52482362  0.01548707  0.80080175    -1.30900
O738        O  0.90943585  0.40004989  0.77000136    -0.96400
C739        C  0.87482319  0.47555975  0.84818796     1.08400
Mn740      Mn  0.52778284  0.06960608  0.80074680     1.48600
O741        O  0.86852421  0.44365216  0.83712798    -0.85600
Mn742      Mn  0.93381517  0.38174595  0.80086755     1.49600
O743        O  0.51690421  0.39140462  0.76405841    -0.89500
C744        C  0.55380796  0.47542145  0.86047920     1.21600
C745        C  0.98488302  0.36548140  0.75342839     1.13600
Mn746      Mn  0.98505053  0.47565717  0.83578026     1.81000
O747        O  0.98489452  0.05124609  0.77006638    -0.94700
Mn748      Mn  0.53617984  0.43294882  0.80060556     1.49300
C749        C  0.98510427  0.36546717  0.84796185     1.10100
Mn750      Mn  0.94228434  0.02684736  0.80100239     1.49900
C751        C  0.87479704  0.47576917  0.75365067     1.13100
O752        O  0.90938124  0.40011357  0.83161457    -1.00500
O753        O  0.56931388  0.09196754  0.76419547    -0.90100
C754        C  0.91609587  0.40690250  0.86054800     1.24300
O755        O  0.98517968  0.05130069  0.83168685    -1.00800
O756        O  0.60149289  0.06024489  0.76453819    -0.88200
O757        O  0.90046233  0.00766949  0.76469898    -0.87900
O758        O  0.95297394  0.35918866  0.76448854    -0.87900
Mn759      Mn  0.57894546  0.01844088  0.80085333     1.47900
O760        O  0.98485437  0.01487977  0.73273138    -0.76300
C761        C  0.91622149  0.40676218  0.74106711     1.17400
O762        O  0.52422004  0.47553038  0.86887371    -0.75100
O763        O  0.52420588  0.47586923  0.73265074    -0.74700
Mn764      Mn  0.89107384  0.42448818  0.80074831     1.51100
O765        O  0.90074437  0.00757660  0.83755315    -0.87000
O766        O  0.56062947  0.47583685  0.76991760    -0.94600
O767        O  0.86869659  0.44374521  0.76425767    -0.89600
C768        C  0.55393222  0.47599702  0.74098938     1.15200
C769        C  0.98583341  0.07081165  0.88436281    -0.16600
C770        C  0.98633227  0.09460406  0.90229981     0.07500
C771        C  0.98685394  0.12388853  0.92130954     0.09400
C772        C  0.98712209  0.14966102  0.93620044    -0.17400
C773        C  0.98529475  0.34120971  0.87333687    -0.16600
C774        C  0.98568031  0.31946313  0.89317377     0.07500
C775        C  0.98622783  0.29257679  0.91471648     0.09400
C776        C  0.98662395  0.26855021  0.93177099    -0.17400
C777        C  0.98361117  0.14807250  0.66545910    -0.16600
C778        C  0.98372052  0.12251638  0.68041187     0.07500
C779        C  0.98404187  0.09367453  0.69947271     0.09400
C780        C  0.98438484  0.07029635  0.71741674    -0.17400
C781        C  0.98409090  0.26745622  0.66963171    -0.16600
C782        C  0.98426652  0.29178938  0.68664641     0.07500
C783        C  0.98453088  0.31908754  0.70816953     0.09400
C784        C  0.98473598  0.34111071  0.72801622    -0.17400
C785        C  0.98591303  0.21229500  0.53608448    -0.11300
C786        C  0.98532689  0.21201332  0.56544177    -0.12900
C787        C  0.85046317  0.47541680  0.87360773    -0.16600
C788        C  0.82844795  0.47521721  0.89346023     0.07500
C789        C  0.80115309  0.47495874  0.91498430     0.09400
C790        C  0.77681794  0.47478610  0.93199462    -0.17400
C791        C  0.65742295  0.47430167  0.93614846    -0.16600
C792        C  0.63186467  0.47440808  0.92119440     0.07500
C793        C  0.60302058  0.47472422  0.90213198     0.09400
C794        C  0.57964018  0.47506200  0.88418594    -0.17400
C795        C  0.85054505  0.47595734  0.72826991    -0.16600
C796        C  0.82880331  0.47634196  0.70842697     0.07500
C797        C  0.80191866  0.47688834  0.68688092     0.09400
C798        C  0.77789005  0.47728327  0.66982799    -0.17400
C799        C  0.65898641  0.47776937  0.66540912    -0.16600
C800        C  0.63321061  0.47750039  0.68029765     0.07500
C801        C  0.60392453  0.47697984  0.69930436     0.09400
C802        C  0.58013242  0.47648360  0.71724155    -0.17400
C803        C  0.72162708  0.47658452  0.56552569    -0.11300
C804        C  0.72134813  0.47600521  0.53616973    -0.12900
C805        C  0.81125295  0.30339460  0.93617873    -0.16600
C806        C  0.83697822  0.32893490  0.92126133     0.07500
C807        C  0.86619305  0.35775254  0.90222686     0.09400
C808        C  0.88992993  0.38110461  0.88427814    -0.17400
C809        C  0.61946309  0.11020183  0.87349977    -0.16600
C810        C  0.64124264  0.13223309  0.89336939     0.07500
C811        C  0.66821242  0.15957732  0.91490866     0.09400
C812        C  0.69232113  0.18396589  0.93192834    -0.17400
C813        C  0.81270864  0.30193191  0.66542769    -0.16600
C814        C  0.83824747  0.32765458  0.68034888     0.07500
C815        C  0.86706444  0.35686452  0.69938822     0.09400
C816        C  0.89041798  0.38059745  0.71733870    -0.17400
C817        C  0.61954260  0.11010674  0.72809390    -0.16600
C818        C  0.64157074  0.13188960  0.70822431     0.07500
C819        C  0.66890948  0.15886819  0.68668700     0.09400
C820        C  0.69329317  0.18298534  0.66966979    -0.17400
C821        C  0.74896266  0.23939943  0.56547654    -0.12000
C822        C  0.74871398  0.23964678  0.53612540    -0.12900
C823        C  0.72330561  0.71282504  0.15095102     0.82200
N824        N  0.72192250  0.71179536  0.11790750    -0.76100
C825        C  0.75034388  0.74024954  0.10039440     0.84600
N826        N  0.78008462  0.76970524  0.11590256    -0.76100
C827        C  0.78144803  0.77071386  0.14892504     0.84700
N828        N  0.75305051  0.74228715  0.16642629    -0.77800
C829        C  0.72215353  0.71398332  0.45064928     0.82200
N830        N  0.75161492  0.74373036  0.43517559    -0.76100
C831        C  0.78003571  0.77213195  0.45267924     0.84600
N832        N  0.77902167  0.77076982  0.48570106    -0.76100
C833        C  0.74956563  0.74102804  0.00120766     0.84700
N834        N  0.72111829  0.71260167  0.48369244    -0.77800
C835        C  0.74811921  0.97753633  0.15105570     0.82200
N836        N  0.74918863  0.97718818  0.11800997    -0.76100
C837        C  0.72076696  0.97716181  0.10045256     0.84600
N838        N  0.69129801  0.97743477  0.11592412    -0.76100
C839        C  0.69024663  0.97778504  0.14894627     0.84700
N840        N  0.71864156  0.97780920  0.16648725    -0.77800
C841        C  0.74685093  0.97471066  0.45069964     0.82200
N842        N  0.71707843  0.97433941  0.43520567    -0.76100
C843        C  0.68871602  0.97444157  0.45268373     0.84600
N844        N  0.69014330  0.97495640  0.48570893    -0.76100
C845        C  0.71991155  0.97533125  0.00124190     0.84700
N846        N  0.74829528  0.97522473  0.48374549    -0.77800
C847        C  0.98401600  0.73749466  0.15091990     0.82200
N848        N  0.98364382  0.70772108  0.16640895    -0.76100
C849        C  0.98375020  0.67936615  0.14892665     0.84600
N850        N  0.98427040  0.68080099  0.11590133    -0.76100
C851        C  0.98464673  0.71057006  0.10037216     0.84700
N852        N  0.98453569  0.73894601  0.11787358    -0.77800
C853        C  0.98687932  0.73878434  0.45054764     0.82200
N854        N  0.98652507  0.73985320  0.48359433    -0.76100
C855        C  0.98649933  0.71143672  0.00115461     0.84600
N856        N  0.98677843  0.68197136  0.48568556    -0.76100
C857        C  0.98713503  0.68091978  0.45266240     0.84700
N858        N  0.98715859  0.70931044  0.43511956    -0.77800
O859        O  0.51700638  0.89113220  0.33691261    -0.86200
C860        C  0.59520582  0.58587552  0.25352060     1.13800
O861        O  0.98500501  0.93588415  0.30076434    -1.34000
O862        O  0.60131762  0.55997287  0.33740107    -0.87700
O863        O  0.95307626  0.85936991  0.33735863    -0.88400
O864        O  0.94582925  0.93649373  0.36891308    -0.77200
O865        O  0.56058343  0.97555996  0.33153713    -0.99300
C866        C  0.98534255  0.54460828  0.36061561     1.23900
O867        O  0.94521555  0.97567490  0.30084587    -1.34200
Mn868      Mn  0.98498409  0.97571451  0.26582763     1.82100
O869        O  0.98521117  0.51488307  0.36895558    -0.76300
O870        O  0.56959526  0.59215211  0.33705740    -0.85700
C871        C  0.98474989  0.54446781  0.24112419     1.14900
C872        C  0.59522842  0.58586513  0.34807415     1.09700
O873        O  0.94581157  0.93649393  0.23269948    -0.77200
O874        O  0.52482356  0.51548701  0.30080158    -1.30900
O875        O  0.90943582  0.90004975  0.27000150    -0.96400
C876        C  0.87482323  0.97555982  0.34818789     1.08400
Mn877      Mn  0.52778287  0.56960611  0.30074657     1.48600
O878        O  0.86852425  0.94365214  0.33712796    -0.85600
Mn879      Mn  0.93381510  0.88174582  0.30086772     1.49600
O880        O  0.51690407  0.89140434  0.26405834    -0.89500
C881        C  0.55380785  0.97542136  0.36047918     1.21600
C882        C  0.98488290  0.86548110  0.25342850     1.13600
Mn883      Mn  0.98505053  0.97565719  0.33578023     1.81000
O884        O  0.98489451  0.55124597  0.27006611    -0.94700
Mn885      Mn  0.53617969  0.93294863  0.30060551     1.49300
C886        C  0.98510419  0.86546704  0.34796198     1.10100
Mn887      Mn  0.94228432  0.52684726  0.30100224     1.49900
C888        C  0.87479691  0.97576877  0.25365060     1.13100
O889        O  0.90938131  0.90011362  0.33161469    -1.00500
O890        O  0.56931389  0.59196745  0.26419508    -0.90100
C891        C  0.91609603  0.90690262  0.36054820     1.24300
O892        O  0.98517971  0.55130076  0.33168663    -1.00800
O893        O  0.60149271  0.56024459  0.26453794    -0.88200
O894        O  0.90046229  0.50766926  0.26469878    -0.87900
O895        O  0.95297380  0.85918836  0.26448879    -0.87900
Mn896      Mn  0.57894535  0.51844073  0.30085314     1.47900
O897        O  0.98485414  0.51487954  0.23273121    -0.76300
C898        C  0.91622131  0.90676182  0.24106723     1.17400
O899        O  0.52422016  0.97553054  0.36887365    -0.75100
O900        O  0.52420577  0.97586896  0.23265057    -0.74700
Mn901      Mn  0.89107382  0.92448810  0.30074841     1.51100
O902        O  0.90074439  0.50757663  0.33755300    -0.87000
O903        O  0.56062930  0.97583661  0.26991749    -0.94600
O904        O  0.86869651  0.94374493  0.26425767    -0.89600
C905        C  0.55393200  0.97599672  0.24098927     1.15200
C906        C  0.98583368  0.57081184  0.38436258    -0.16600
C907        C  0.98633255  0.59460434  0.40229974     0.07500
C908        C  0.98685432  0.62388868  0.42130933     0.09400
C909        C  0.98712239  0.64966132  0.43620047    -0.17400
C910        C  0.98529482  0.84120969  0.37333701    -0.16600
C911        C  0.98568037  0.81946317  0.39317390     0.07500
C912        C  0.98622789  0.79257678  0.41471674     0.09400
C913        C  0.98662405  0.76855048  0.43177110    -0.17400
C914        C  0.98361138  0.64807256  0.16545901    -0.16600
C915        C  0.98372062  0.62251644  0.18041158     0.07500
C916        C  0.98404176  0.59367428  0.19947240     0.09400
C917        C  0.98438471  0.57029628  0.21741644    -0.17400
C918        C  0.98409110  0.76745619  0.16963178    -0.16600
C919        C  0.98426657  0.79178945  0.18664652     0.07500
C920        C  0.98453075  0.81908729  0.20816960     0.09400
C921        C  0.98473574  0.84111046  0.22801647    -0.17400
C922        C  0.98591360  0.71229554  0.03608455    -0.11300
C923        C  0.98532749  0.71201387  0.06544163    -0.12900
C924        C  0.85046321  0.97541686  0.37360762    -0.16600
C925        C  0.82844800  0.97521741  0.39346020     0.07500
C926        C  0.80115333  0.97495905  0.41498423     0.09400
C927        C  0.77681796  0.97478628  0.43199469    -0.17400
C928        C  0.65742293  0.97430179  0.43614842    -0.16600
C929        C  0.63186462  0.97440811  0.42119423     0.07500
C930        C  0.60302048  0.97472412  0.40213179     0.09400
C931        C  0.57964011  0.97506194  0.38418585    -0.17400
C932        C  0.85054487  0.97595691  0.22826985    -0.16600
C933        C  0.82880315  0.97634146  0.20842689     0.07500
C934        C  0.80191834  0.97688766  0.18688085     0.09400
C935        C  0.77788975  0.97728259  0.16982807    -0.17400
C936        C  0.65898606  0.97776862  0.16540921    -0.16600
C937        C  0.63321037  0.97749972  0.18029768     0.07500
C938        C  0.60392422  0.97697928  0.19930436     0.09400
C939        C  0.58013218  0.97648309  0.21724141    -0.17400
C940        C  0.72162665  0.97658370  0.06552579    -0.11300
C941        C  0.72134778  0.97600455  0.03616967    -0.12900
C942        C  0.81125332  0.80339400  0.43617886    -0.16600
C943        C  0.83697870  0.82893458  0.42126139     0.07500
C944        C  0.86619328  0.85775224  0.40222694     0.09400
C945        C  0.88993021  0.88110463  0.38427828    -0.17400
C946        C  0.61946333  0.61020198  0.37349930    -0.16600
C947        C  0.64124298  0.63223321  0.39336899     0.07500
C948        C  0.66821279  0.65957720  0.41490836     0.09400
C949        C  0.69232154  0.68396536  0.43192815    -0.17400
C950        C  0.81270867  0.80193123  0.16542776    -0.16600
C951        C  0.83824754  0.82765387  0.18034913     0.07500
C952        C  0.86706434  0.85686394  0.19938837     0.09400
C953        C  0.89041787  0.88059690  0.21733889    -0.17400
C954        C  0.61954252  0.61010629  0.22809347    -0.16600
C955        C  0.64157046  0.63188913  0.20822390     0.07500
C956        C  0.66890938  0.65886767  0.18668661     0.09400
C957        C  0.69329308  0.68298478  0.16966947    -0.17400
C958        C  0.74896213  0.73940011  0.06547637    -0.12000
C959        C  0.74871335  0.73964768  0.03612567    -0.12900
C960        C  0.72330577  0.71282548  0.65095102     0.82200
N961        N  0.72192276  0.71179527  0.61790781    -0.76100
C962        C  0.75034443  0.74024930  0.60039416     0.84600
N963        N  0.78008483  0.76970518  0.61590261    -0.76100
C964        C  0.78144816  0.77071445  0.64892480     0.84700
N965        N  0.75305038  0.74228774  0.66642645    -0.77800
C966        C  0.72215274  0.71398376  0.95064913     0.82200
N967        N  0.75161461  0.74373097  0.93517567    -0.76100
C968        C  0.78003494  0.77213228  0.95267890     0.84600
N969        N  0.77902104  0.77077068  0.98570115    -0.76100
C970        C  0.74956659  0.74102725  0.50120794     0.84700
N971        N  0.72111771  0.71260260  0.98369266    -0.77800
C972        C  0.74811966  0.97753701  0.65105570     0.82200
N973        N  0.74918897  0.97718904  0.61800990    -0.76100
C974        C  0.72076748  0.97716260  0.60045260     0.84600
N975        N  0.69129834  0.97743560  0.61592410    -0.76100
C976        C  0.69024724  0.97778603  0.64894630     0.84700
N977        N  0.71864183  0.97780996  0.66648724    -0.77800
C978        C  0.74685066  0.97471023  0.95070001     0.82200
N979        N  0.71707827  0.97433909  0.93520568    -0.76100
C980        C  0.68871589  0.97444140  0.95268410     0.84600
N981        N  0.69014305  0.97495598  0.98570888    -0.76100
C982        C  0.71991196  0.97533186  0.50124156     0.84700
N983        N  0.74829508  0.97522430  0.98374539    -0.77800
C984        C  0.98401557  0.73749442  0.65091993     0.82200
N985        N  0.98364346  0.70772093  0.66640901    -0.76100
C986        C  0.98374980  0.67936598  0.64892683     0.84600
N987        N  0.98426989  0.68080068  0.61590141    -0.76100
C988        C  0.98464618  0.71056972  0.60037223     0.84700
N989        N  0.98453519  0.73894573  0.61787357    -0.77800
C990        C  0.98687944  0.73878467  0.95054730     0.82200
N991        N  0.98652537  0.73985327  0.98359439    -0.76100
C992        C  0.98649906  0.71143609  0.50115490     0.84600
N993        N  0.98677855  0.68197135  0.98568563    -0.76100
C994        C  0.98713492  0.68092012  0.95266222     0.84700
N995        N  0.98715839  0.70931014  0.93511957    -0.77800
O996        O  0.51700644  0.89113240  0.83691258    -0.86200
C997        C  0.59520589  0.58587590  0.75352095     1.13800
O998        O  0.98500514  0.93588433  0.80076437    -1.34000
O999        O  0.60131752  0.55997284  0.83740134    -0.87700
O1000       O  0.95307631  0.85937006  0.83735836    -0.88400
O1001       O  0.94582921  0.93649362  0.86891305    -0.77200
O1002       O  0.56058347  0.97556009  0.83153722    -0.99300
C1003       C  0.98534250  0.54460816  0.86061576     1.23900
O1004       O  0.94521564  0.97567503  0.80084587    -1.34200
Mn1005     Mn  0.98498428  0.97571474  0.76582771     1.82100
O1006       O  0.98521102  0.51488290  0.86895569    -0.76300
O1007       O  0.56959509  0.59215200  0.83705772    -0.85700
C1008       C  0.98474992  0.54446794  0.74112428     1.14900
C1009       C  0.59522821  0.58586498  0.84807447     1.09700
O1010       O  0.94581188  0.93649423  0.73269949    -0.77200
O1011       O  0.52482365  0.51548710  0.80080176    -1.30900
O1012       O  0.90943581  0.90004998  0.77000137    -0.96400
C1013       C  0.87482312  0.97555972  0.84818795     1.08400
Mn1014     Mn  0.52778282  0.56960614  0.80074683     1.48600
O1015       O  0.86852416  0.94365212  0.83712801    -0.85600
Mn1016     Mn  0.93381512  0.88174602  0.80086757     1.49600
O1017       O  0.51690423  0.89140463  0.76405840    -0.89500
C1018       C  0.55380791  0.97542135  0.86047920     1.21600
C1019       C  0.98488285  0.86548135  0.75342842     1.13600
Mn1020     Mn  0.98505054  0.97565720  0.83578030     1.81000
O1021       O  0.98489451  0.55124617  0.77006637    -0.94700
Mn1022     Mn  0.53617983  0.93294887  0.80060552     1.49300
C1023       C  0.98510426  0.86546722  0.84796183     1.10100
Mn1024     Mn  0.94228439  0.52684740  0.80100242     1.49900
C1025       C  0.87479691  0.97576897  0.75365064     1.13100
O1026       O  0.90938127  0.90011365  0.83161459    -1.00500
O1027       O  0.56931398  0.59196772  0.76419547    -0.90100
C1028       C  0.91609601  0.90690256  0.86054809     1.24300
O1029       O  0.98517975  0.55130077  0.83168686    -1.00800
O1030       O  0.60149282  0.56024487  0.76453818    -0.88200
O1031       O  0.90046236  0.50766959  0.76469897    -0.87900
O1032       O  0.95297390  0.85918869  0.76448855    -0.87900
Mn1033     Mn  0.57894546  0.51844086  0.80085329     1.47900
O1034       O  0.98485442  0.51487987  0.73273141    -0.76300
C1035       C  0.91622148  0.90676223  0.74106707     1.17400
O1036       O  0.52422011  0.97553051  0.86887371    -0.75100
O1037       O  0.52420591  0.97586921  0.73265072    -0.74700
Mn1038     Mn  0.89107382  0.92448824  0.80074836     1.51100
O1039       O  0.90074442  0.50757668  0.83755318    -0.87000
O1040       O  0.56062955  0.97583695  0.76991759    -0.94600
O1041       O  0.86869651  0.94374513  0.76425768    -0.89600
C1042       C  0.55393224  0.97599708  0.74098939     1.15200
C1043       C  0.98583340  0.57081164  0.88436289    -0.16600
C1044       C  0.98633220  0.59460400  0.90229988     0.07500
C1045       C  0.98685387  0.62388854  0.92130956     0.09400
C1046       C  0.98712206  0.64966106  0.93620039    -0.17400
C1047       C  0.98529473  0.84120973  0.87333690    -0.16600
C1048       C  0.98568029  0.81946316  0.89317379     0.07500
C1049       C  0.98622784  0.79257681  0.91471657     0.09400
C1050       C  0.98662407  0.76855036  0.93177102    -0.17400
C1051       C  0.98361115  0.64807244  0.66545912    -0.16600
C1052       C  0.98372050  0.62251644  0.68041185     0.07500
C1053       C  0.98404185  0.59367446  0.69947267     0.09400
C1054       C  0.98438492  0.57029647  0.71741670    -0.17400
C1055       C  0.98409083  0.76745616  0.66963172    -0.16600
C1056       C  0.98426646  0.79178934  0.68664642     0.07500
C1057       C  0.98453084  0.81908751  0.70816957     0.09400
C1058       C  0.98473591  0.84111063  0.72801626    -0.17400
C1059       C  0.98591306  0.71229496  0.53608449    -0.11300
C1060       C  0.98532694  0.71201340  0.56544177    -0.12900
C1061       C  0.85046309  0.97541675  0.87360771    -0.16600
C1062       C  0.82844787  0.97521714  0.89346025     0.07500
C1063       C  0.80115302  0.97495867  0.91498432     0.09400
C1064       C  0.77681785  0.97478602  0.93199464    -0.17400
C1065       C  0.65742289  0.97430160  0.93614846    -0.16600
C1066       C  0.63186467  0.97440814  0.92119440     0.07500
C1067       C  0.60302055  0.97472421  0.90213198     0.09400
C1068       C  0.57964015  0.97506196  0.88418594    -0.17400
C1069       C  0.85054504  0.97595729  0.72826993    -0.16600
C1070       C  0.82880324  0.97634193  0.70842693     0.07500
C1071       C  0.80191870  0.97688829  0.68688093     0.09400
C1072       C  0.77789000  0.97728333  0.66982794    -0.17400
C1073       C  0.65898630  0.97776933  0.66540918    -0.16600
C1074       C  0.63321073  0.97750049  0.68029765     0.07500
C1075       C  0.60392453  0.97697994  0.69930440     0.09400
C1076       C  0.58013242  0.97648353  0.71724151    -0.17400
C1077       C  0.72162697  0.97658442  0.56552567    -0.11300
C1078       C  0.72134817  0.97600526  0.53616972    -0.12900
C1079       C  0.81125293  0.80339453  0.93617873    -0.16600
C1080       C  0.83697842  0.82893485  0.92126130     0.07500
C1081       C  0.86619313  0.85775245  0.90222683     0.09400
C1082       C  0.88993008  0.88110461  0.88427814    -0.17400
C1083       C  0.61946309  0.61020183  0.87349973    -0.16600
C1084       C  0.64124263  0.63223317  0.89336940     0.07500
C1085       C  0.66821237  0.65957729  0.91490867     0.09400
C1086       C  0.69232114  0.68396593  0.93192834    -0.17400
C1087       C  0.81270858  0.80193187  0.66542764    -0.16600
C1088       C  0.83824752  0.82765458  0.68034886     0.07500
C1089       C  0.86706436  0.85686448  0.69938818     0.09400
C1090       C  0.89041799  0.88059752  0.71733869    -0.17400
C1091       C  0.61954262  0.61010670  0.72809392    -0.16600
C1092       C  0.64157071  0.63188962  0.70822439     0.07500
C1093       C  0.66890947  0.65886826  0.68668698     0.09400
C1094       C  0.69329305  0.68298524  0.66966980    -0.17400
C1095       C  0.74896273  0.73939932  0.56547655    -0.12000
C1096       C  0.74871406  0.73964668  0.53612541    -0.12900
loop_ 
_geom_bond_atom_site_label_1 
_geom_bond_atom_site_label_2 
_geom_bond_distance 
_geom_bond_site_symmetry_2 
_ccdc_geom_bond_type 
C1            N2   1.357       .  A
C1            N6   1.357       .  A
C1          C135   1.435       .  S
N2            C3   1.358       .  A
C3            N4   1.357       .  A
C3          C136   1.434       .  S
N4            C5   1.356       .  A
C5            N6   1.357       .  A
C5          C128   1.435       .  S
C7            N8   1.357       .  A
C7           N12   1.357       .  A
C7          C127   1.435       .  S
N8            C9   1.357       .  A
C9           N10   1.356       .  A
C9          C120   1.435       .  S
N10         C148   1.357       .  A
C11         N147   1.357   1_554  A
C11         N149   1.358   1_554  A
C11         C137   1.434       .  S
N12         C148   1.358       .  A
C13          N14   1.357       .  A
C13          N18   1.357       .  A
C13         C113   1.435       .  S
N14          C15   1.358       .  A
C15          N16   1.357       .  A
C15         C118   1.435       .  S
N16          C17   1.356       .  A
C17          N18   1.357       .  A
C17         C114   1.435       .  S
C19          N20   1.357       .  A
C19          N24   1.357       .  A
C19         C105   1.435       .  S
N20          C21   1.357       .  A
C21          N22   1.356       .  A
C21         C106   1.435       .  S
N22         C160   1.357       .  A
C23         N159   1.357   1_554  A
C23         N161   1.358   1_554  A
C23         C119   1.435       .  S
N24         C160   1.358       .  A
C25          N26   1.357       .  A
C25          N30   1.357       .  A
C25          C96   1.435       .  S
N26          C27   1.357       .  A
C27          N28   1.357       .  A
C27          C92   1.436       .  S
N28          C29   1.357       .  A
C29          N30   1.358       .  A
C29         C101   1.435       .  S
C31          N32   1.357       .  A
C31          N36   1.357       .  A
C31          C91   1.436       .  S
N32         C170   1.358       .  A
C33         N169   1.358   1_554  A
C33         N171   1.357   1_554  A
C33         C100   1.435       .  S
N34          C35   1.356       .  A
N34         C170   1.357       .  A
C35          N36   1.357       .  A
C35          C87   1.435       .  S
O37         Mn63   2.092       .  S
O37         C612   1.270   1_455  A
C38         C132   1.434       .  S
C38          O71   1.270       .  A
C38          O68   1.270       .  A
O39         Mn46   2.159       .  S
O39         Mn57   2.135       .  S
O39         Mn61   2.159       .  S
O39        Mn611   2.135       .  S
O40         Mn74   2.092       .  S
O40          C50   1.270       .  A
O41         Mn57   2.093       .  S
O41          C64   1.270       .  A
O42         Mn61   2.090       .  S
O42          C69   1.249       .  A
O43         Mn63   1.965       .  S
O43        Mn348   1.966       .  S
O43          C59   1.219       .  S
C44          C84   1.434       .  S
C44          O47   1.250       .  A
C44          O70   1.219       .  S
O45         Mn46   2.159       .  S
O45         Mn79   2.135       .  S
O45         Mn61   2.159       .  S
O45        Mn339   2.135       .  S
Mn46         O51   2.090       .  S
Mn46        O349   2.091       .  S
Mn46        O626   2.091       .  S
Mn46        O874   2.159       .  S
O47        Mn335   2.091   1_545  S
O48         Mn55   2.092       .  S
O48          C50   1.270       .  A
C49          C95   1.434       .  S
C49          O75   1.250       .  A
C49          O62   1.219       .  S
C50         C124   1.434       .  S
O51          C76   1.249       .  A
O52         Mn55   2.135       .  S
O52         Mn74   2.135       .  S
O52        Mn868   2.159   1_445  S
O52        Mn883   2.159   1_445  S
O53         Mn57   1.965       .  S
O53         Mn79   1.966       .  S
O53          C76   1.219       .  S
C54         C102   1.434       .  S
C54          O56   1.270       .  A
C54         O354   1.270       .  A
Mn55         O68   2.092       .  S
Mn55        O618   1.965   1_455  S
Mn55        O610   1.966   1_455  S
O56         Mn79   2.093       .  S
Mn57         O73   2.093       .  S
Mn57         O67   1.966       .  S
O58         Mn63   2.093       .  S
O58         C608   1.270   1_455  A
C59         C109   1.434       .  S
C59          O77   1.249       .  A
C60          C99   1.434       .  S
C60          O73   1.270       .  A
C60         O606   1.270       .  A
Mn61        O321   2.091       .  S
Mn61        O625   2.091       .  S
Mn61        O874   2.159       .  S
O62         Mn65   1.965       .  S
O62        Mn603   1.966       .  S
Mn63        O587   2.135   1_455  S
Mn63         O81   1.966       .  S
C64          C88   1.435       .  S
C64         O585   1.270       .  A
Mn65         O72   2.092       .  S
Mn65         O80   2.092       .  S
Mn65        O319   2.135   1_545  S
Mn65         O70   1.966       .  S
C66         C110   1.435       .  S
C66          O82   1.270       .  A
C66         O346   1.270       .  A
O67         Mn79   1.965       .  S
O67          C69   1.219       .  S
C69         C123   1.434       .  S
O70        Mn603   1.965       .  S
O71         Mn74   2.092       .  S
O72         C340   1.270   1_545  A
Mn74        O317   1.966   1_545  S
Mn74        O355   1.965   1_545  S
O75        Mn320   2.091   1_545  S
C76         C131   1.434       .  S
O77        Mn609   2.091   1_455  S
O78        Mn594   2.091   1_455  S
O78          C83   1.249       .  A
Mn79         O82   2.093       .  S
O80         C328   1.270   1_545  A
O81        Mn348   1.965       .  S
O81          C83   1.219       .  S
C83         C117   1.434       .  S
C84          C85   1.205       .  T
C85          C86   1.412       .  S
C86          C87   1.205       .  T
C88          C89   1.205       .  T
C89          C90   1.412       .  S
C90          C91   1.206       .  T
C92          C93   1.206       .  T
C93          C94   1.412       .  S
C94          C95   1.205       .  T
C96          C97   1.205       .  T
C97          C98   1.412       .  S
C98          C99   1.205       .  T
C100        C101   1.205       .  T
C102        C103   1.205       .  T
C103        C104   1.412       .  S
C104        C105   1.205       .  T
C106        C107   1.205       .  T
C107        C108   1.412       .  S
C108        C109   1.205       .  T
C110        C111   1.205       .  T
C111        C112   1.412       .  S
C112        C113   1.205       .  T
C114        C115   1.205       .  T
C115        C116   1.411       .  S
C116        C117   1.205       .  T
C118        C119   1.205       .  T
C120        C121   1.205       .  T
C121        C122   1.411       .  S
C122        C123   1.205       .  T
C124        C125   1.205       .  T
C125        C126   1.411       .  S
C126        C127   1.205       .  T
C128        C129   1.205       .  T
C129        C130   1.411       .  S
C130        C131   1.205       .  T
C132        C133   1.205       .  T
C133        C134   1.411       .  S
C134        C135   1.205       .  T
C136        C137   1.205       .  T
C138        N139   1.357       .  A
C138        N143   1.357       .  A
C138        C272   1.435       .  S
N139        C140   1.358       .  A
C140        N141   1.357       .  A
C140        C273   1.434       .  S
N141        C142   1.356       .  A
C142        N143   1.357       .  A
C142        C265   1.435       .  S
C144        N145   1.357       .  A
C144        N149   1.357       .  A
C144        C264   1.435       .  S
N145        C146   1.357       .  A
C146        N147   1.356       .  A
C146        C257   1.435       .  S
C148        C274   1.434       .  S
C150        N151   1.357       .  A
C150        N155   1.357       .  A
C150        C250   1.435       .  S
N151        C152   1.358       .  A
C152        N153   1.357       .  A
C152        C255   1.435       .  S
N153        C154   1.356       .  A
C154        N155   1.357       .  A
C154        C251   1.435       .  S
C156        N157   1.357       .  A
C156        N161   1.357       .  A
C156        C242   1.435       .  S
N157        C158   1.357       .  A
C158        N159   1.356       .  A
C158        C243   1.435       .  S
C160        C256   1.435       .  S
C162        N163   1.357       .  A
C162        N167   1.357       .  A
C162        C233   1.435       .  S
N163        C164   1.357       .  A
C164        N165   1.357       .  A
C164        C229   1.436       .  S
N165        C166   1.357       .  A
C166        N167   1.358       .  A
C166        C238   1.435       .  S
C168        N169   1.357       .  A
C168        N173   1.357       .  A
C168        C228   1.436       .  S
C170        C237   1.435       .  S
N171        C172   1.356       .  A
C172        N173   1.357       .  A
C172        C224   1.435       .  S
O174       Mn200   2.092       .  S
O174        C749   1.270   1_455  A
C175        C269   1.434       .  S
C175        O208   1.270       .  A
C175        O205   1.270       .  A
O176       Mn183   2.159       .  S
O176       Mn194   2.135       .  S
O176       Mn198   2.159       .  S
O176       Mn748   2.135       .  S
O177       Mn211   2.092       .  S
O177        C187   1.270       .  A
O178       Mn194   2.093       .  S
O178        C201   1.270       .  A
O179       Mn198   2.090       .  S
O179        C206   1.249       .  A
O180       Mn485   1.966       .  S
O180       Mn200   1.965       .  S
O180        C196   1.219       .  S
C181        C221   1.434       .  S
C181        O184   1.250       .  A
C181        O207   1.219       .  S
O182       Mn476   2.135       .  S
O182       Mn183   2.159       .  S
O182       Mn216   2.135       .  S
O182       Mn198   2.159       .  S
Mn183       O486   2.091       .  S
Mn183       O188   2.090       .  S
Mn183       O763   2.091       .  S
Mn183      O1011   2.159       .  S
O184       Mn472   2.091   1_545  S
O185       Mn192   2.092       .  S
O185        C187   1.270       .  A
C186        C232   1.434       .  S
C186        O212   1.250       .  A
C186        O199   1.219       .  S
C187        C261   1.434       .  S
O188        C213   1.249       .  A
O189      Mn1005   2.159   1_445  S
O189       Mn192   2.135       .  S
O189       Mn211   2.135       .  S
O189      Mn1020   2.159   1_445  S
O190       Mn194   1.965       .  S
O190       Mn216   1.966       .  S
O190        C213   1.219       .  S
C191        C239   1.434       .  S
C191        O491   1.270       .  A
C191        O193   1.270       .  A
Mn192       O205   2.092       .  S
Mn192       O755   1.965   1_455  S
Mn192       O747   1.966   1_455  S
O193       Mn216   2.093       .  S
Mn194       O210   2.093       .  S
Mn194       O204   1.966       .  S
O195       Mn200   2.093       .  S
O195        C745   1.270   1_455  A
C196        C246   1.434       .  S
C196        O214   1.249       .  A
C197        C236   1.434       .  S
C197        O743   1.270       .  A
C197        O210   1.270       .  A
Mn198       O458   2.091       .  S
Mn198       O762   2.091       .  S
Mn198      O1011   2.159       .  S
O199       Mn740   1.966       .  S
O199       Mn202   1.965       .  S
Mn200       O724   2.135   1_455  S
Mn200       O218   1.966       .  S
C201        C225   1.435       .  S
C201        O722   1.270       .  A
Mn202       O209   2.092       .  S
Mn202       O217   2.092       .  S
Mn202       O456   2.135   1_545  S
Mn202       O207   1.966       .  S
C203        C247   1.435       .  S
C203        O483   1.270       .  A
C203        O219   1.270       .  A
O204       Mn216   1.965       .  S
O204        C206   1.219       .  S
C206        C260   1.434       .  S
O207       Mn740   1.965       .  S
O208       Mn211   2.092       .  S
O209        C477   1.270   1_545  A
Mn211       O454   1.966   1_545  S
Mn211       O492   1.965   1_545  S
O212       Mn457   2.091   1_545  S
C213        C268   1.434       .  S
O214       Mn746   2.091   1_455  S
O215       Mn731   2.091   1_455  S
O215        C220   1.249       .  A
Mn216       O219   2.093       .  S
O217        C465   1.270   1_545  A
O218       Mn485   1.965       .  S
O218        C220   1.219       .  S
C220        C254   1.434       .  S
C221        C222   1.205       .  T
C222        C223   1.412       .  S
C223        C224   1.205       .  T
C225        C226   1.205       .  T
C226        C227   1.412       .  S
C227        C228   1.206       .  T
C229        C230   1.206       .  T
C230        C231   1.412       .  S
C231        C232   1.205       .  T
C233        C234   1.205       .  T
C234        C235   1.412       .  S
C235        C236   1.205       .  T
C237        C238   1.205       .  T
C239        C240   1.205       .  T
C240        C241   1.412       .  S
C241        C242   1.205       .  T
C243        C244   1.205       .  T
C244        C245   1.412       .  S
C245        C246   1.205       .  T
C247        C248   1.205       .  T
C248        C249   1.412       .  S
C249        C250   1.205       .  T
C251        C252   1.205       .  T
C252        C253   1.411       .  S
C253        C254   1.205       .  T
C255        C256   1.205       .  T
C257        C258   1.205       .  T
C258        C259   1.411       .  S
C259        C260   1.205       .  T
C261        C262   1.205       .  T
C262        C263   1.411       .  S
C263        C264   1.205       .  T
C265        C266   1.205       .  T
C266        C267   1.411       .  S
C267        C268   1.205       .  T
C269        C270   1.205       .  T
C270        C271   1.411       .  S
C271        C272   1.205       .  T
C273        C274   1.205       .  T
C275        N276   1.357       .  A
C275        N280   1.357       .  A
C275        C409   1.435       .  S
N276        C277   1.358       .  A
C277        N278   1.357       .  A
C277        C410   1.434       .  S
N278        C279   1.356       .  A
C279        N280   1.357       .  A
C279        C402   1.435       .  S
C281        N282   1.357       .  A
C281        N286   1.357       .  A
C281        C401   1.435       .  S
N282        C283   1.357       .  A
C283        N284   1.356       .  A
C283        C394   1.435       .  S
N284        C422   1.357       .  A
C285        N421   1.357   1_554  A
C285        N423   1.358   1_554  A
C285        C411   1.434       .  S
N286        C422   1.358       .  A
C287        N288   1.357       .  A
C287        N292   1.357       .  A
C287        C387   1.435       .  S
N288        C289   1.358       .  A
C289        N290   1.357       .  A
C289        C392   1.435       .  S
N290        C291   1.356       .  A
C291        N292   1.357       .  A
C291        C388   1.435       .  S
C293        N294   1.357       .  A
C293        N298   1.357       .  A
C293        C379   1.435       .  S
N294        C295   1.357       .  A
C295        N296   1.356       .  A
C295        C380   1.435       .  S
N296        C434   1.357       .  A
C297        N433   1.357   1_554  A
C297        N435   1.358   1_554  A
C297        C393   1.435       .  S
N298        C434   1.358       .  A
C299        N300   1.357       .  A
C299        N304   1.357       .  A
C299        C370   1.435       .  S
N300        C301   1.357       .  A
C301        N302   1.357       .  A
C301        C366   1.436       .  S
N302        C303   1.357       .  A
C303        N304   1.358       .  A
C303        C375   1.435       .  S
C305        N306   1.357       .  A
C305        N310   1.357       .  A
C305        C365   1.436       .  S
N306        C444   1.358       .  A
C307        N443   1.358   1_554  A
C307        N445   1.357   1_554  A
C307        C374   1.435       .  S
N308        C444   1.357       .  A
N308        C309   1.356       .  A
C309        N310   1.357       .  A
C309        C361   1.435       .  S
O311       Mn337   2.092       .  S
O311        C886   1.270   1_455  A
C312        C406   1.434       .  S
C312        O345   1.270       .  A
C312        O342   1.270       .  A
O313       Mn320   2.159       .  S
O313       Mn331   2.135       .  S
O313       Mn335   2.159       .  S
O313       Mn885   2.135       .  S
O314       Mn348   2.092       .  S
O314        C324   1.270       .  A
O315       Mn331   2.093       .  S
O315        C338   1.270       .  A
O316       Mn335   2.090       .  S
O316        C343   1.249       .  A
O317       Mn337   1.965       .  S
O317        C333   1.219       .  S
C318        C358   1.434       .  S
C318        O321   1.250       .  A
C318        O344   1.219       .  S
O319       Mn320   2.159       .  S
O319       Mn353   2.135       .  S
O319       Mn335   2.159       .  S
Mn320       O325   2.090       .  S
Mn320       O900   2.091       .  S
Mn320       O600   2.159   1_565  S
O322       Mn329   2.092       .  S
O322        C324   1.270       .  A
C323        C369   1.434       .  S
C323        O349   1.250       .  A
C323        O336   1.219       .  S
C324        C398   1.434       .  S
O325        C350   1.249       .  A
O326       Mn594   2.159   1_455  S
O326       Mn329   2.135       .  S
O326       Mn348   2.135       .  S
O326       Mn609   2.159   1_455  S
O327       Mn331   1.965       .  S
O327       Mn353   1.966       .  S
O327        C350   1.219       .  S
C328        C376   1.434       .  S
C328        O330   1.270       .  A
Mn329       O342   2.092       .  S
Mn329       O892   1.965   1_455  S
Mn329       O884   1.966   1_455  S
O330       Mn353   2.092       .  S
Mn331       O347   2.093       .  S
Mn331       O341   1.966       .  S
O332       Mn337   2.093       .  S
O332        C882   1.270   1_455  A
C333        C383   1.434       .  S
C333        O351   1.249       .  A
C334        C373   1.434       .  S
C334        O880   1.270       .  A
C334        O347   1.270       .  A
Mn335       O899   2.091       .  S
Mn335       O600   2.159   1_565  S
O336       Mn877   1.966       .  S
O336       Mn339   1.965       .  S
Mn337       O861   2.135   1_455  S
Mn337       O355   1.966       .  S
C338        C362   1.435       .  S
C338        O859   1.270       .  A
Mn339       O346   2.092       .  S
Mn339       O354   2.092       .  S
Mn339       O344   1.966       .  S
C340        C384   1.435       .  S
C340        O356   1.270       .  A
O341       Mn353   1.965       .  S
O341        C343   1.219       .  S
C343        C397   1.434       .  S
O344       Mn877   1.965       .  S
O345       Mn348   2.092       .  S
C350        C405   1.434       .  S
O351       Mn883   2.091   1_455  S
O352       Mn868   2.091   1_455  S
O352        C357   1.249       .  A
Mn353       O356   2.093       .  S
O355        C357   1.219       .  S
C357        C391   1.434       .  S
C358        C359   1.205       .  T
C359        C360   1.412       .  S
C360        C361   1.205       .  T
C362        C363   1.205       .  T
C363        C364   1.412       .  S
C364        C365   1.206       .  T
C366        C367   1.206       .  T
C367        C368   1.412       .  S
C368        C369   1.205       .  T
C370        C371   1.205       .  T
C371        C372   1.412       .  S
C372        C373   1.205       .  T
C374        C375   1.205       .  T
C376        C377   1.205       .  T
C377        C378   1.412       .  S
C378        C379   1.205       .  T
C380        C381   1.205       .  T
C381        C382   1.412       .  S
C382        C383   1.205       .  T
C384        C385   1.205       .  T
C385        C386   1.412       .  S
C386        C387   1.205       .  T
C388        C389   1.205       .  T
C389        C390   1.411       .  S
C390        C391   1.205       .  T
C392        C393   1.205       .  T
C394        C395   1.205       .  T
C395        C396   1.411       .  S
C396        C397   1.205       .  T
C398        C399   1.205       .  T
C399        C400   1.411       .  S
C400        C401   1.205       .  T
C402        C403   1.205       .  T
C403        C404   1.411       .  S
C404        C405   1.205       .  T
C406        C407   1.205       .  T
C407        C408   1.411       .  S
C408        C409   1.205       .  T
C410        C411   1.205       .  T
C412        N413   1.357       .  A
C412        N417   1.357       .  A
C412        C546   1.435       .  S
N413        C414   1.358       .  A
C414        N415   1.357       .  A
C414        C547   1.434       .  S
N415        C416   1.356       .  A
C416        N417   1.357       .  A
C416        C539   1.435       .  S
C418        N419   1.357       .  A
C418        N423   1.357       .  A
C418        C538   1.435       .  S
N419        C420   1.357       .  A
C420        N421   1.356       .  A
C420        C531   1.435       .  S
C422        C548   1.434       .  S
C424        N425   1.357       .  A
C424        N429   1.357       .  A
C424        C524   1.435       .  S
N425        C426   1.358       .  A
C426        N427   1.357       .  A
C426        C529   1.435       .  S
N427        C428   1.356       .  A
C428        N429   1.357       .  A
C428        C525   1.435       .  S
C430        N431   1.357       .  A
C430        N435   1.357       .  A
C430        C516   1.435       .  S
N431        C432   1.357       .  A
C432        N433   1.356       .  A
C432        C517   1.435       .  S
C434        C530   1.435       .  S
C436        N437   1.357       .  A
C436        N441   1.357       .  A
C436        C507   1.435       .  S
N437        C438   1.357       .  A
C438        N439   1.357       .  A
C438        C503   1.436       .  S
N439        C440   1.357       .  A
C440        N441   1.358       .  A
C440        C512   1.435       .  S
C442        N443   1.357       .  A
C442        N447   1.357       .  A
C442        C502   1.436       .  S
C444        C511   1.435       .  S
N445        C446   1.356       .  A
C446        N447   1.357       .  A
C446        C498   1.435       .  S
O448       Mn474   2.092       .  S
O448       C1023   1.270   1_455  A
C449        C543   1.434       .  S
C449        O482   1.270       .  A
C449        O479   1.270       .  A
O450       Mn457   2.159       .  S
O450       Mn468   2.135       .  S
O450       Mn472   2.159       .  S
O450      Mn1022   2.135       .  S
O451       Mn485   2.092       .  S
O451        C461   1.270       .  A
O452       Mn468   2.093       .  S
O452        C475   1.270       .  A
O453       Mn472   2.090       .  S
O453        C480   1.249       .  A
O454       Mn474   1.965       .  S
O454        C470   1.219       .  S
C455        C495   1.434       .  S
C455        O458   1.250       .  A
C455        O481   1.219       .  S
O456       Mn457   2.159       .  S
O456       Mn490   2.135       .  S
O456       Mn472   2.159       .  S
Mn457       O462   2.090       .  S
Mn457      O1037   2.091       .  S
Mn457       O737   2.159   1_565  S
O459       Mn466   2.092       .  S
O459        C461   1.270       .  A
C460        C506   1.434       .  S
C460        O486   1.250       .  A
C460        O473   1.219       .  S
C461        C535   1.434       .  S
O462        C487   1.249       .  A
O463       Mn731   2.159   1_455  S
O463       Mn466   2.135       .  S
O463       Mn485   2.135       .  S
O463       Mn746   2.159   1_455  S
O464       Mn468   1.965       .  S
O464       Mn490   1.966       .  S
O464        C487   1.219       .  S
C465        C513   1.434       .  S
C465        O467   1.270       .  A
Mn466       O479   2.092       .  S
Mn466      O1029   1.965   1_455  S
Mn466      O1021   1.966   1_455  S
O467       Mn490   2.093       .  S
Mn468       O484   2.093       .  S
Mn468       O478   1.966       .  S
O469       Mn474   2.093       .  S
O469       C1019   1.270   1_455  A
C470        C520   1.434       .  S
C470        O488   1.249       .  A
C471        C510   1.434       .  S
C471       O1017   1.270       .  A
C471        O484   1.270       .  A
Mn472      O1036   2.091       .  S
Mn472       O737   2.159   1_565  S
O473      Mn1014   1.966       .  S
O473       Mn476   1.965       .  S
Mn474       O998   2.135   1_455  S
Mn474       O492   1.966       .  S
C475        C499   1.435       .  S
C475        O996   1.270       .  A
Mn476       O483   2.092       .  S
Mn476       O491   2.092       .  S
Mn476       O481   1.966       .  S
C477        C521   1.435       .  S
C477        O493   1.270       .  A
O478       Mn490   1.965       .  S
O478        C480   1.219       .  S
C480        C534   1.434       .  S
O481      Mn1014   1.965       .  S
O482       Mn485   2.092       .  S
C487        C542   1.434       .  S
O488      Mn1020   2.091   1_455  S
O489      Mn1005   2.091   1_455  S
O489        C494   1.249       .  A
Mn490       O493   2.093       .  S
O492        C494   1.219       .  S
C494        C528   1.434       .  S
C495        C496   1.205       .  T
C496        C497   1.412       .  S
C497        C498   1.205       .  T
C499        C500   1.205       .  T
C500        C501   1.412       .  S
C501        C502   1.206       .  T
C503        C504   1.206       .  T
C504        C505   1.412       .  S
C505        C506   1.205       .  T
C507        C508   1.205       .  T
C508        C509   1.412       .  S
C509        C510   1.205       .  T
C511        C512   1.205       .  T
C513        C514   1.205       .  T
C514        C515   1.412       .  S
C515        C516   1.205       .  T
C517        C518   1.205       .  T
C518        C519   1.412       .  S
C519        C520   1.205       .  T
C521        C522   1.205       .  T
C522        C523   1.412       .  S
C523        C524   1.205       .  T
C525        C526   1.205       .  T
C526        C527   1.412       .  S
C527        C528   1.205       .  T
C529        C530   1.205       .  T
C531        C532   1.205       .  T
C532        C533   1.411       .  S
C533        C534   1.205       .  T
C535        C536   1.205       .  T
C536        C537   1.411       .  S
C537        C538   1.205       .  T
C539        C540   1.205       .  T
C540        C541   1.411       .  S
C541        C542   1.205       .  T
C543        C544   1.205       .  T
C544        C545   1.411       .  S
C545        C546   1.205       .  T
C547        C548   1.205       .  T
C549        N550   1.357       .  A
C549        N554   1.357       .  A
C549        C683   1.435       .  S
N550        C551   1.358       .  A
C551        N552   1.357       .  A
C551        C684   1.434       .  S
N552        C553   1.356       .  A
C553        N554   1.357       .  A
C553        C676   1.435       .  S
C555        N556   1.357       .  A
C555        N560   1.357       .  A
C555        C675   1.435       .  S
N556        C557   1.357       .  A
C557        N558   1.356       .  A
C557        C668   1.435       .  S
N558        C696   1.357       .  A
C559        N695   1.357   1_554  A
C559        N697   1.358   1_554  A
C559        C685   1.434       .  S
N560        C696   1.358       .  A
C561        N562   1.357       .  A
C561        N566   1.357       .  A
C561        C661   1.435       .  S
N562        C563   1.358       .  A
C563        N564   1.357       .  A
C563        C666   1.435       .  S
N564        C565   1.356       .  A
C565        N566   1.357       .  A
C565        C662   1.435       .  S
C567        N568   1.357       .  A
C567        N572   1.357       .  A
C567        C653   1.435       .  S
N568        C569   1.357       .  A
C569        N570   1.356       .  A
C569        C654   1.435       .  S
N570        C708   1.357       .  A
C571        N707   1.357   1_554  A
C571        N709   1.358   1_554  A
C571        C667   1.435       .  S
N572        C708   1.358       .  A
C573        N574   1.357       .  A
C573        N578   1.357       .  A
C573        C644   1.435       .  S
N574        C575   1.357       .  A
C575        N576   1.357       .  A
C575        C640   1.436       .  S
N576        C577   1.357       .  A
C577        N578   1.358       .  A
C577        C649   1.435       .  S
C579        N580   1.357       .  A
C579        N584   1.357       .  A
C579        C639   1.436       .  S
N580        C718   1.358       .  A
C581        N717   1.358   1_554  A
C581        N719   1.357   1_554  A
C581        C648   1.435       .  S
N582        C718   1.357       .  A
N582        C583   1.356       .  A
C583        N584   1.357       .  A
C583        C635   1.435       .  S
O585       Mn611   2.092       .  S
C586        C680   1.434       .  S
C586        O619   1.270       .  A
C586        O616   1.270       .  A
O587       Mn594   2.159       .  S
O587       Mn605   2.135       .  S
O587       Mn609   2.159       .  S
O588       Mn622   2.092       .  S
O588        C598   1.270       .  A
O589       Mn605   2.093       .  S
O589        C612   1.270       .  A
O590       Mn609   2.090       .  S
O590        C617   1.249       .  A
O591       Mn896   1.966       .  S
O591       Mn611   1.965       .  S
O591        C607   1.219       .  S
C592        C632   1.434       .  S
C592        O595   1.250       .  A
C592        O618   1.219       .  S
O593       Mn887   2.135       .  S
O593       Mn594   2.159       .  S
O593       Mn627   2.135       .  S
O593       Mn609   2.159       .  S
Mn594       O897   2.091       .  S
Mn594       O599   2.090       .  S
O595       Mn883   2.091   1_545  S
O596       Mn603   2.092       .  S
O596        C598   1.270       .  A
C597        C643   1.434       .  S
C597        O623   1.250       .  A
C597        O610   1.219       .  S
C598        C672   1.434       .  S
O599        C624   1.249       .  A
O600       Mn603   2.135       .  S
O600       Mn622   2.135       .  S
O601       Mn605   1.965       .  S
O601       Mn627   1.966       .  S
O601        C624   1.219       .  S
C602        C650   1.434       .  S
C602        O902   1.270       .  A
C602        O604   1.270       .  A
Mn603       O616   2.092       .  S
O604       Mn627   2.093       .  S
Mn605       O621   2.093       .  S
Mn605       O615   1.966       .  S
O606       Mn611   2.093       .  S
C607        C657   1.434       .  S
C607        O625   1.249       .  A
C608        C647   1.434       .  S
C608        O621   1.270       .  A
Mn609       O869   2.091       .  S
O610       Mn613   1.965       .  S
Mn611       O629   1.966       .  S
C612        C636   1.435       .  S
Mn613       O620   2.092       .  S
Mn613       O628   2.092       .  S
Mn613       O867   2.135   1_545  S
Mn613       O618   1.966       .  S
C614        C658   1.435       .  S
C614        O894   1.270       .  A
C614        O630   1.270       .  A
O615       Mn627   1.965       .  S
O615        C617   1.219       .  S
C617        C671   1.434       .  S
O619       Mn622   2.092       .  S
O620        C888   1.270   1_545  A
Mn622       O865   1.966   1_545  S
Mn622       O903   1.965   1_545  S
O623       Mn868   2.091   1_545  S
C624        C679   1.434       .  S
O626        C631   1.249       .  A
Mn627       O630   2.093       .  S
O628        C876   1.270   1_545  A
O629       Mn896   1.965       .  S
O629        C631   1.219       .  S
C631        C665   1.434       .  S
C632        C633   1.205       .  T
C633        C634   1.412       .  S
C634        C635   1.205       .  T
C636        C637   1.205       .  T
C637        C638   1.412       .  S
C638        C639   1.206       .  T
C640        C641   1.206       .  T
C641        C642   1.412       .  S
C642        C643   1.205       .  T
C644        C645   1.205       .  T
C645        C646   1.412       .  S
C646        C647   1.205       .  T
C648        C649   1.205       .  T
C650        C651   1.205       .  T
C651        C652   1.412       .  S
C652        C653   1.205       .  T
C654        C655   1.205       .  T
C655        C656   1.412       .  S
C656        C657   1.205       .  T
C658        C659   1.205       .  T
C659        C660   1.412       .  S
C660        C661   1.205       .  T
C662        C663   1.205       .  T
C663        C664   1.411       .  S
C664        C665   1.205       .  T
C666        C667   1.205       .  T
C668        C669   1.205       .  T
C669        C670   1.411       .  S
C670        C671   1.205       .  T
C672        C673   1.205       .  T
C673        C674   1.411       .  S
C674        C675   1.205       .  T
C676        C677   1.205       .  T
C677        C678   1.411       .  S
C678        C679   1.205       .  T
C680        C681   1.205       .  T
C681        C682   1.411       .  S
C682        C683   1.205       .  T
C684        C685   1.205       .  T
C686        N687   1.357       .  A
C686        N691   1.357       .  A
C686        C820   1.435       .  S
N687        C688   1.358       .  A
C688        N689   1.357       .  A
C688        C821   1.434       .  S
N689        C690   1.356       .  A
C690        N691   1.357       .  A
C690        C813   1.435       .  S
C692        N693   1.357       .  A
C692        N697   1.357       .  A
C692        C812   1.435       .  S
N693        C694   1.357       .  A
C694        N695   1.356       .  A
C694        C805   1.435       .  S
C696        C822   1.434       .  S
C698        N699   1.357       .  A
C698        N703   1.357       .  A
C698        C798   1.435       .  S
N699        C700   1.358       .  A
C700        N701   1.357       .  A
C700        C803   1.435       .  S
N701        C702   1.356       .  A
C702        N703   1.357       .  A
C702        C799   1.435       .  S
C704        N705   1.357       .  A
C704        N709   1.357       .  A
C704        C790   1.435       .  S
N705        C706   1.357       .  A
C706        N707   1.356       .  A
C706        C791   1.435       .  S
C708        C804   1.435       .  S
C710        N711   1.357       .  A
C710        N715   1.357       .  A
C710        C781   1.435       .  S
N711        C712   1.357       .  A
C712        N713   1.357       .  A
C712        C777   1.436       .  S
N713        C714   1.357       .  A
C714        N715   1.358       .  A
C714        C786   1.435       .  S
C716        N717   1.357       .  A
C716        N721   1.357       .  A
C716        C776   1.436       .  S
C718        C785   1.435       .  S
N719        C720   1.356       .  A
C720        N721   1.357       .  A
C720        C772   1.435       .  S
O722       Mn748   2.092       .  S
C723        C817   1.434       .  S
C723        O756   1.270       .  A
C723        O753   1.270       .  A
O724       Mn731   2.159       .  S
O724       Mn742   2.135       .  S
O724       Mn746   2.159       .  S
O725       Mn759   2.092       .  S
O725        C735   1.270       .  A
O726       Mn742   2.093       .  S
O726        C749   1.270       .  A
O727       Mn746   2.090       .  S
O727        C754   1.249       .  A
O728      Mn1033   1.966       .  S
O728       Mn748   1.965       .  S
O728        C744   1.219       .  S
C729        C769   1.434       .  S
C729        O732   1.250       .  A
C729        O755   1.219       .  S
O730      Mn1024   2.135       .  S
O730       Mn731   2.159       .  S
O730       Mn764   2.135       .  S
O730       Mn746   2.159       .  S
Mn731      O1034   2.091       .  S
Mn731       O736   2.090       .  S
O732      Mn1020   2.091   1_545  S
O733       Mn740   2.092       .  S
O733        C735   1.270       .  A
C734        C780   1.434       .  S
C734        O760   1.250       .  A
C734        O747   1.219       .  S
C735        C809   1.434       .  S
O736        C761   1.249       .  A
O737       Mn740   2.135       .  S
O737       Mn759   2.135       .  S
O738       Mn742   1.965       .  S
O738       Mn764   1.966       .  S
O738        C761   1.219       .  S
C739        C787   1.434       .  S
C739       O1039   1.270       .  A
C739        O741   1.270       .  A
Mn740       O753   2.092       .  S
O741       Mn764   2.093       .  S
Mn742       O758   2.093       .  S
Mn742       O752   1.966       .  S
O743       Mn748   2.093       .  S
C744        C794   1.434       .  S
C744        O762   1.249       .  A
C745        C784   1.434       .  S
C745        O758   1.270       .  A
Mn746      O1006   2.091       .  S
O747       Mn750   1.965       .  S
Mn748       O766   1.966       .  S
C749        C773   1.435       .  S
Mn750       O757   2.092       .  S
Mn750       O765   2.092       .  S
Mn750      O1004   2.135   1_545  S
Mn750       O755   1.966       .  S
C751        C795   1.435       .  S
C751       O1031   1.270       .  A
C751        O767   1.270       .  A
O752       Mn764   1.965       .  S
O752        C754   1.219       .  S
C754        C808   1.434       .  S
O756       Mn759   2.092       .  S
O757       C1025   1.270   1_545  A
Mn759      O1002   1.966   1_545  S
Mn759      O1040   1.965   1_545  S
O760      Mn1005   2.091   1_545  S
C761        C816   1.434       .  S
O763        C768   1.249       .  A
Mn764       O767   2.093       .  S
O765       C1013   1.270   1_545  A
O766      Mn1033   1.965       .  S
O766        C768   1.219       .  S
C768        C802   1.434       .  S
C769        C770   1.205       .  T
C770        C771   1.412       .  S
C771        C772   1.205       .  T
C773        C774   1.205       .  T
C774        C775   1.412       .  S
C775        C776   1.206       .  T
C777        C778   1.206       .  T
C778        C779   1.412       .  S
C779        C780   1.205       .  T
C781        C782   1.205       .  T
C782        C783   1.412       .  S
C783        C784   1.205       .  T
C785        C786   1.205       .  T
C787        C788   1.205       .  T
C788        C789   1.412       .  S
C789        C790   1.205       .  T
C791        C792   1.205       .  T
C792        C793   1.412       .  S
C793        C794   1.205       .  T
C795        C796   1.205       .  T
C796        C797   1.412       .  S
C797        C798   1.205       .  T
C799        C800   1.205       .  T
C800        C801   1.411       .  S
C801        C802   1.205       .  T
C803        C804   1.205       .  T
C805        C806   1.205       .  T
C806        C807   1.411       .  S
C807        C808   1.205       .  T
C809        C810   1.205       .  T
C810        C811   1.411       .  S
C811        C812   1.205       .  T
C813        C814   1.205       .  T
C814        C815   1.411       .  S
C815        C816   1.205       .  T
C817        C818   1.205       .  T
C818        C819   1.411       .  S
C819        C820   1.205       .  T
C821        C822   1.205       .  T
C823        N824   1.357       .  A
C823        N828   1.357       .  A
C823        C957   1.435       .  S
N824        C825   1.358       .  A
C825        N826   1.357       .  A
C825        C958   1.434       .  S
N826        C827   1.356       .  A
C827        N828   1.357       .  A
C827        C950   1.435       .  S
C829        N830   1.357       .  A
C829        N834   1.357       .  A
C829        C949   1.435       .  S
N830        C831   1.357       .  A
C831        N832   1.356       .  A
C831        C942   1.435       .  S
N832        C970   1.357       .  A
C833        N969   1.357   1_554  A
C833        N971   1.358   1_554  A
C833        C959   1.434       .  S
N834        C970   1.358       .  A
C835        N836   1.357       .  A
C835        N840   1.357       .  A
C835        C935   1.435       .  S
N836        C837   1.358       .  A
C837        N838   1.357       .  A
C837        C940   1.435       .  S
N838        C839   1.356       .  A
C839        N840   1.357       .  A
C839        C936   1.435       .  S
C841        N842   1.357       .  A
C841        N846   1.357       .  A
C841        C927   1.435       .  S
N842        C843   1.357       .  A
C843        N844   1.357       .  A
C843        C928   1.435       .  S
N844        C982   1.357       .  A
C845        N981   1.357   1_554  A
C845        N983   1.358   1_554  A
C845        C941   1.435       .  S
N846        C982   1.358       .  A
C847        N848   1.357       .  A
C847        N852   1.357       .  A
C847        C918   1.435       .  S
N848        C849   1.357       .  A
C849        N850   1.357       .  A
C849        C914   1.436       .  S
N850        C851   1.357       .  A
C851        N852   1.358       .  A
C851        C923   1.435       .  S
C853        N854   1.357       .  A
C853        N858   1.357       .  A
C853        C913   1.436       .  S
N854        C992   1.358       .  A
C855        N991   1.358   1_554  A
C855        N993   1.357   1_554  A
C855        C922   1.435       .  S
N856        C992   1.357       .  A
N856        C857   1.356       .  A
C857        N858   1.357       .  A
C857        C909   1.435       .  S
O859       Mn885   2.092       .  S
C860        C954   1.434       .  S
C860        O893   1.270       .  A
C860        O890   1.270       .  A
O861       Mn868   2.159       .  S
O861       Mn879   2.135       .  S
O861       Mn883   2.159       .  S
O862       Mn896   2.092       .  S
O862        C872   1.270       .  A
O863       Mn879   2.093       .  S
O863        C886   1.270       .  A
O864       Mn883   2.090       .  S
O864        C891   1.249       .  A
O865       Mn885   1.965       .  S
O865        C881   1.219       .  S
C866        C906   1.434       .  S
C866        O869   1.250       .  A
C866        O892   1.219       .  S
O867       Mn868   2.159       .  S
O867       Mn901   2.135       .  S
O867       Mn883   2.159       .  S
Mn868       O873   2.090       .  S
O870       Mn877   2.092       .  S
O870        C872   1.270       .  A
C871        C917   1.434       .  S
C871        O897   1.250       .  A
C871        O884   1.219       .  S
C872        C946   1.434       .  S
O873        C898   1.249       .  A
O874       Mn877   2.135       .  S
O874       Mn896   2.135       .  S
O875       Mn879   1.965       .  S
O875       Mn901   1.966       .  S
O875        C898   1.219       .  S
C876        C924   1.434       .  S
C876        O878   1.270       .  A
Mn877       O890   2.092       .  S
O878       Mn901   2.093       .  S
Mn879       O895   2.093       .  S
Mn879       O889   1.966       .  S
O880       Mn885   2.093       .  S
C881        C931   1.434       .  S
C881        O899   1.249       .  A
C882        C921   1.434       .  S
C882        O895   1.270       .  A
O884       Mn887   1.965       .  S
Mn885       O903   1.966       .  S
C886        C910   1.435       .  S
Mn887       O894   2.092       .  S
Mn887       O902   2.092       .  S
Mn887       O892   1.966       .  S
C888        C932   1.435       .  S
C888        O904   1.270       .  A
O889       Mn901   1.965       .  S
O889        C891   1.219       .  S
C891        C945   1.434       .  S
O893       Mn896   2.092       .  S
C898        C953   1.434       .  S
O900        C905   1.249       .  A
Mn901       O904   2.093       .  S
O903        C905   1.219       .  S
C905        C939   1.434       .  S
C906        C907   1.205       .  T
C907        C908   1.412       .  S
C908        C909   1.205       .  T
C910        C911   1.205       .  T
C911        C912   1.412       .  S
C912        C913   1.206       .  T
C914        C915   1.206       .  T
C915        C916   1.412       .  S
C916        C917   1.205       .  T
C918        C919   1.205       .  T
C919        C920   1.412       .  S
C920        C921   1.205       .  T
C922        C923   1.205       .  T
C924        C925   1.205       .  T
C925        C926   1.412       .  S
C926        C927   1.205       .  T
C928        C929   1.205       .  T
C929        C930   1.412       .  S
C930        C931   1.205       .  T
C932        C933   1.205       .  T
C933        C934   1.412       .  S
C934        C935   1.205       .  T
C936        C937   1.205       .  T
C937        C938   1.411       .  S
C938        C939   1.205       .  T
C940        C941   1.205       .  T
C942        C943   1.205       .  T
C943        C944   1.411       .  S
C944        C945   1.205       .  T
C946        C947   1.205       .  T
C947        C948   1.411       .  S
C948        C949   1.205       .  T
C950        C951   1.205       .  T
C951        C952   1.411       .  S
C952        C953   1.205       .  T
C954        C955   1.205       .  T
C955        C956   1.411       .  S
C956        C957   1.205       .  T
C958        C959   1.205       .  T
C960        N961   1.357       .  A
C960        N965   1.357       .  A
C960       C1094   1.435       .  S
N961        C962   1.358       .  A
C962        N963   1.357       .  A
C962       C1095   1.434       .  S
N963        C964   1.356       .  A
C964        N965   1.357       .  A
C964       C1087   1.435       .  S
C966        N967   1.357       .  A
C966        N971   1.357       .  A
C966       C1086   1.435       .  S
N967        C968   1.357       .  A
C968        N969   1.356       .  A
C968       C1079   1.435       .  S
C970       C1096   1.434       .  S
C972        N973   1.357       .  A
C972        N977   1.357       .  A
C972       C1072   1.435       .  S
N973        C974   1.358       .  A
C974        N975   1.357       .  A
C974       C1077   1.435       .  S
N975        C976   1.356       .  A
C976        N977   1.357       .  A
C976       C1073   1.435       .  S
C978        N979   1.357       .  A
C978        N983   1.357       .  A
C978       C1064   1.435       .  S
N979        C980   1.357       .  A
C980        N981   1.356       .  A
C980       C1065   1.435       .  S
C982       C1078   1.435       .  S
C984        N985   1.357       .  A
C984        N989   1.357       .  A
C984       C1055   1.435       .  S
N985        C986   1.357       .  A
C986        N987   1.357       .  A
C986       C1051   1.436       .  S
N987        C988   1.357       .  A
C988        N989   1.358       .  A
C988       C1060   1.435       .  S
C990        N991   1.357       .  A
C990        N995   1.357       .  A
C990       C1050   1.436       .  S
C992       C1059   1.435       .  S
N993        C994   1.356       .  A
C994        N995   1.357       .  A
C994       C1046   1.435       .  S
O996      Mn1022   2.092       .  S
C997       C1091   1.434       .  S
C997       O1030   1.270       .  A
C997       O1027   1.270       .  A
O998      Mn1005   2.159       .  S
O998      Mn1016   2.135       .  S
O998      Mn1020   2.159       .  S
O999      Mn1033   2.092       .  S
O999       C1009   1.270       .  A
O1000     Mn1016   2.093       .  S
O1000      C1023   1.270       .  A
O1001     Mn1020   2.090       .  S
O1001      C1028   1.249       .  A
O1002     Mn1022   1.965       .  S
O1002      C1018   1.219       .  S
C1003      C1043   1.434       .  S
C1003      O1006   1.250       .  A
C1003      O1029   1.219       .  S
O1004     Mn1005   2.159       .  S
O1004     Mn1038   2.135       .  S
O1004     Mn1020   2.159       .  S
Mn1005     O1010   2.090       .  S
O1007     Mn1014   2.092       .  S
O1007      C1009   1.270       .  A
C1008      C1054   1.434       .  S
C1008      O1034   1.250       .  A
C1008      O1021   1.219       .  S
C1009      C1083   1.434       .  S
O1010      C1035   1.249       .  A
O1011     Mn1014   2.135       .  S
O1011     Mn1033   2.135       .  S
O1012     Mn1016   1.965       .  S
O1012     Mn1038   1.966       .  S
O1012      C1035   1.219       .  S
C1013      C1061   1.434       .  S
C1013      O1015   1.270       .  A
Mn1014     O1027   2.092       .  S
O1015     Mn1038   2.093       .  S
Mn1016     O1032   2.093       .  S
Mn1016     O1026   1.966       .  S
O1017     Mn1022   2.093       .  S
C1018      C1068   1.434       .  S
C1018      O1036   1.249       .  A
C1019      C1058   1.434       .  S
C1019      O1032   1.270       .  A
O1021     Mn1024   1.965       .  S
Mn1022     O1040   1.966       .  S
C1023      C1047   1.435       .  S
Mn1024     O1031   2.092       .  S
Mn1024     O1039   2.092       .  S
Mn1024     O1029   1.966       .  S
C1025      C1069   1.435       .  S
C1025      O1041   1.270       .  A
O1026     Mn1038   1.965       .  S
O1026      C1028   1.219       .  S
C1028      C1082   1.434       .  S
O1030     Mn1033   2.092       .  S
C1035      C1090   1.434       .  S
O1037      C1042   1.249       .  A
Mn1038     O1041   2.093       .  S
O1040      C1042   1.219       .  S
C1042      C1076   1.434       .  S
C1043      C1044   1.205       .  T
C1044      C1045   1.412       .  S
C1045      C1046   1.205       .  T
C1047      C1048   1.205       .  T
C1048      C1049   1.412       .  S
C1049      C1050   1.206       .  T
C1051      C1052   1.206       .  T
C1052      C1053   1.412       .  S
C1053      C1054   1.205       .  T
C1055      C1056   1.205       .  T
C1056      C1057   1.412       .  S
C1057      C1058   1.205       .  T
C1059      C1060   1.205       .  T
C1061      C1062   1.205       .  T
C1062      C1063   1.412       .  S
C1063      C1064   1.205       .  T
C1065      C1066   1.205       .  T
C1066      C1067   1.412       .  S
C1067      C1068   1.205       .  T
C1069      C1070   1.205       .  T
C1070      C1071   1.412       .  S
C1071      C1072   1.205       .  T
C1073      C1074   1.205       .  T
C1074      C1075   1.411       .  S
C1075      C1076   1.205       .  T
C1077      C1078   1.205       .  T
C1079      C1080   1.205       .  T
C1080      C1081   1.411       .  S
C1081      C1082   1.205       .  T
C1083      C1084   1.205       .  T
C1084      C1085   1.411       .  S
C1085      C1086   1.205       .  T
C1087      C1088   1.205       .  T
C1088      C1089   1.411       .  S
C1089      C1090   1.205       .  T
C1091      C1092   1.205       .  T
C1092      C1093   1.411       .  S
C1093      C1094   1.205       .  T
C1095      C1096   1.205       .  T
