geometry optimzed in LAMMPS
_audit_creation_date              2020-11-30 
_audit_creation_method            'lammps2cif' 
_symmetry_space_group_name_H-M    'P1' 
_symmetry_Int_Tables_number       1 
_symmetry_cell_setting            triclinic 
loop_ 
_symmetry_equiv_pos_as_xyz 
  x,y,z 
_cell_length_a                    52.24434752 
_cell_length_b                    52.45573767762404 
_cell_length_c                    43.371417059957565 
_cell_angle_alpha                 90.15535094979893 
_cell_angle_beta                  90.21218250690383 
_cell_angle_gamma                 119.85072361735165 
loop_ 
_atom_site_label 
_atom_site_type_symbol 
_atom_site_fract_x 
_atom_site_fract_y 
_atom_site_fract_z 
_atom_site_charge 
C1          C  0.22742292  0.22273358  0.15386647     0.03800
C2          C  0.25026128  0.24690641  0.16937351    -0.12300
C3          C  0.27352982  0.26929312  0.15289483     0.01300
C4          C  0.27268141  0.26872482  0.12067335    -0.10800
C5          C  0.25033287  0.24461288  0.10403361     0.03800
C6          C  0.22847890  0.22103295  0.12152362    -0.10300
H7          H  0.24995852  0.24826503  0.19429060     0.09400
H8          H  0.29008690  0.28768467  0.10929432     0.07000
H9          H  0.21207363  0.20102832  0.11060232     0.06800
C10         C  0.22317068  0.22505790  0.01978503     0.03800
C11         C  0.24637894  0.24832582  0.00399457    -0.12300
C12         C  0.27120939  0.26949221  0.02003745     0.01300
C13         C  0.27305344  0.26702886  0.05197130    -0.10800
C14         C  0.24944276  0.24481675  0.06904120     0.03800
C15         C  0.22477736  0.22345749  0.05204071    -0.10300
H16         H  0.25174348  0.24032026  0.47826969     0.09400
H17         H  0.29358507  0.28280659  0.06276568     0.07000
H18         H  0.20667821  0.20502552  0.06322726     0.06800
C19         C  0.24039628  0.46478732  0.15019830     0.03800
C20         C  0.21559215  0.46204744  0.16565268    -0.12300
C21         C  0.19181616  0.46050681  0.14901657     0.01300
C22         C  0.19269493  0.46118746  0.11673617    -0.10800
C23         C  0.21787786  0.46513922  0.10054418     0.03800
C24         C  0.24195997  0.46770015  0.11796321    -0.10300
H25         H  0.21475669  0.46104264  0.19061169     0.09400
H26         H  0.17334389  0.45845188  0.10470084     0.07000
H27         H  0.26226700  0.47227334  0.10682779     0.06800
C28         C  0.23916841  0.46229367  0.01623008     0.03800
C29         C  0.23826432  0.46049997  0.04864568    -0.12300
C30         C  0.21894175  0.46669058  0.06584338     0.01300
C31         C  0.20034245  0.47427531  0.04937789    -0.10800
C32         C  0.20011848  0.47451642  0.01714921     0.03800
C33         C  0.22011577  0.46948835  0.00073775    -0.10300
H34         H  0.25281613  0.45434383  0.06001722     0.09400
H35         H  0.18572718  0.48003979  0.06113811     0.07000
H36         H  0.21688113  0.46731244  0.47585232     0.06800
C37         C  0.49860941  0.24613700  0.15260981     0.03800
C38         C  0.49669723  0.24465041  0.12028706    -0.12300
C39         C  0.50102857  0.22394821  0.10362637     0.01300
C40         C  0.50759258  0.20490476  0.12044577    -0.10800
C41         C  0.50789271  0.20510055  0.15266312     0.03800
C42         C  0.50399743  0.22609140  0.16874456    -0.10300
H43         H  0.49087927  0.25923912  0.10861241     0.09400
H44         H  0.51176342  0.18905252  0.10902677     0.07000
H45         H  0.50430503  0.22628121  0.19373506     0.06800
C46         C  0.49216081  0.24024313  0.01937584     0.03800
C47         C  0.48724604  0.21422822  0.00493303    -0.12300
C48         C  0.48766302  0.19192191  0.02208352     0.01300
C49         C  0.49068700  0.19457058  0.05412382    -0.10800
C50         C  0.49693893  0.22094755  0.06922983     0.03800
C51         C  0.49883168  0.24413513  0.05105141    -0.10300
H52         H  0.47841153  0.21381739  0.48267326     0.09400
H53         H  0.48849647  0.17587685  0.06666092     0.07000
H54         H  0.50606191  0.26551261  0.06109885     0.06800
O55         O  0.01717909  0.41693994  0.37273019    -0.87500
C56         C  0.07127485  0.06686327  0.29049025     1.12600
O57         O  0.49121065  0.45141061  0.33606109    -1.35300
O58         O  0.07944262  0.04887437  0.36643040    -0.88900
O59         O  0.47018504  0.39101397  0.36763620    -0.89600
O60         O  0.45789270  0.44708522  0.40037323    -0.78400
O61         O  0.04798654  0.48303297  0.36559662    -1.00500
C62         C  0.48178627  0.03231102  0.39220442     1.22600
O63         O  0.45677211  0.47833430  0.33595489    -1.35400
Mn64       Mn  0.48975290  0.48196775  0.30298468     1.82100
O65         O  0.48339131  0.01029253  0.40052218    -0.77500
O66         O  0.05057907  0.06890646  0.37245010    -0.86900
C67         C  0.48800846  0.03568712  0.27966943     1.13700
C68         C  0.07347525  0.06721209  0.37893021     1.08400
O69         O  0.46063346  0.45169991  0.27032908    -0.78400
O70         O  0.01850535  0.01029952  0.33545883    -1.32100
O71         O  0.43445333  0.42254903  0.30536101    -0.97700
C72         C  0.39710664  0.47237209  0.37780681     1.07100
Mn73       Mn  0.01862186  0.05069297  0.33735410     1.48600
O74         O  0.39605147  0.44868507  0.36912017    -0.86900
Mn75       Mn  0.45401667  0.40856929  0.33397519     1.49600
O76         O  0.01805202  0.41555341  0.30398846    -0.90700
C77         C  0.04379017  0.48385534  0.39315547     1.20300
C78         C  0.49671757  0.39903710  0.29164893     1.12400
Mn79       Mn  0.48787563  0.47986110  0.37013079     1.81000
O80         O  0.48576486  0.03754741  0.30724618    -0.95900
Mn81       Mn  0.03056452  0.44856364  0.33776577     1.49300
C82         C  0.49491968  0.39727053  0.37990230     1.08900
Mn83       Mn  0.45106847  0.01775863  0.33367710     1.49900
C84         C  0.40013080  0.47423444  0.28989687     1.11800
O85         O  0.43308976  0.42031369  0.36312101    -1.01700
O86         O  0.05196137  0.07108799  0.30380018    -0.91400
C87         C  0.43599977  0.42378900  0.39094638     1.23100
O88         O  0.48282983  0.03688847  0.36458850    -1.02100
O89         O  0.07569338  0.04584563  0.29771695    -0.89500
O90         O  0.42005328  0.00215712  0.29718639    -0.89100
O91         O  0.47113098  0.39398441  0.29915127    -0.89100
Mn92       Mn  0.06104895  0.01492369  0.33372668     1.47900
O93         O  0.48852987  0.01321255  0.27021367    -0.77600
C94         C  0.43845432  0.42798867  0.27787109     1.16200
O95         O  0.01944347  0.48078997  0.40117342    -0.76300
O96         O  0.02011030  0.47884532  0.27096442    -0.70900
Mn97       Mn  0.41666855  0.43741122  0.33470840     1.51100
O98         O  0.41680735  0.00153850  0.36585432    -0.88300
O99         O  0.04650668  0.48050595  0.30821284    -0.95800
O100        O  0.39691427  0.45042965  0.30101545    -0.90800
C101        C  0.04260835  0.47839554  0.28059567     1.13900
C102        C  0.50212314  0.14639885  0.47008797    -0.11200
C103        C  0.47579220  0.11936447  0.47036338     0.11400
C104        C  0.45250588  0.11551637  0.48996301    -0.03000
C105        C  0.46088409  0.13863299  0.01060232    -0.05700
C106        C  0.48617179  0.16620390  0.00639257    -0.16500
C107        C  0.50555989  0.17046110  0.48765118     0.02400
C108        C  0.47432945  0.09529035  0.45090147     0.12400
C109        C  0.43029468  0.08370898  0.00100149     0.63000
H110        H  0.44404689  0.13704328  0.02625845     0.12400
C111        C  0.03047764  0.19272996  0.49195563     0.55100
H112        H  0.01868114  0.14282343  0.46056099     0.08200
C113        C  0.46654571  0.09241659  0.41932062    -0.05600
C114        C  0.46815392  0.07071409  0.40170526    -0.06300
C115        C  0.47847013  0.05262146  0.41412284    -0.15900
C116        C  0.48665602  0.05595728  0.44584766    -0.01500
C117        C  0.48416802  0.07715212  0.46366142    -0.09100
C118        C  0.45773202  0.11296898  0.40395882     0.65200
H119        H  0.46198804  0.06828131  0.37757843     0.10700
C120        C  0.00493384  0.03788113  0.45938305     0.63600
H121        H  0.99301959  0.07674002  0.48841406     0.08000
F122        F  0.02846427  0.21477459  0.47676824    -0.19400
F123        F  0.05335231  0.19030151  0.47898610    -0.15700
F124        F  0.03754531  0.20058697  0.52259944    -0.19200
F125        F  0.43930885  0.06481717  0.01233155    -0.22500
F126        F  0.41032603  0.07668983  0.46552177    -0.24000
F127        F  0.41173222  0.08554197  0.02248737    -0.18000
F128        F  0.01553666  0.04763912  0.48890794    -0.20500
F129        F  0.02871499  0.04366179  0.44094407    -0.21600
F130        F  0.98567376  0.00798143  0.46073021    -0.18800
F131        F  0.45058820  0.10604313  0.37313462    -0.18900
F132        F  0.48086177  0.14156578  0.40571892    -0.22800
F133        F  0.43347668  0.11132631  0.41845579    -0.24400
C134        C  0.47860537  0.30453728  0.49345771    -0.11200
C135        C  0.49453335  0.31160701  0.46583837     0.11400
C136        C  0.00326863  0.28944730  0.45484785    -0.03000
C137        C  0.00159111  0.26773679  0.47494336    -0.05700
C138        C  0.49211855  0.26732443  0.50496669    -0.16500
C139        C  0.47620592  0.28189749  0.51278384     0.02400
C140        C  0.49366306  0.33378782  0.44513128     0.12400
C141        C  0.02081719  0.29559650  0.42517934     0.63000
H142        H  0.01417707  0.25691340  0.47008459     0.12400
C143        C  0.45040493  0.26367386  0.03228621     0.55100
H144        H  0.46746638  0.31659575  0.49944777     0.08200
C145        C  0.46808158  0.32791383  0.42820463    -0.05600
C146        C  0.46920610  0.34989290  0.40871332    -0.06300
C147        C  0.49576208  0.37628935  0.40298920    -0.15900
C148        C  0.52208942  0.38046569  0.41789685    -0.01500
C149        C  0.51976178  0.36033395  0.44062664    -0.09100
C150        C  0.44012860  0.29808469  0.42963507     0.65200
H151        H  0.44927666  0.34587001  0.39683649     0.10700
C152        C  0.04940168  0.39980821  0.41103228     0.63600
H153        H  0.03331859  0.35673307  0.45317048     0.08000
F154        F  0.43735115  0.28504022  0.53893071    -0.19400
F155        F  0.46413041  0.27252178  0.06067854    -0.15700
F156        F  0.43445551  0.23330112  0.03097593    -0.19200
F157        F  0.04543075  0.32330502  0.42617458    -0.22500
F158        F  0.00334812  0.29366555  0.40024514    -0.24000
F159        F  0.03044082  0.27561261  0.42047236    -0.18000
F160        F  0.55722917  0.40254990  0.37778502    -0.20500
F161        F  0.07048524  0.39644185  0.42705836    -0.21600
F162        F  0.05228858  0.42641262  0.41950035    -0.18800
F163        F  0.41934390  0.29556767  0.40812099    -0.18900
F164        F  0.42766149  0.29380307  0.45851700    -0.22800
F165        F  0.44672829  0.27608044  0.42363345    -0.24400
C166        C  0.49458856  0.10743606  0.24931452    -0.11200
C167        C  0.50045720  0.10606512  0.21824505     0.11400
C168        C  0.99841498  0.07780809  0.20757290    -0.03000
C169        C  0.99705635  0.05651245  0.22835396    -0.05700
C170        C  0.49188811  0.06029984  0.25907444    -0.16500
C171        C  0.48988073  0.08507756  0.27008350     0.02400
C172        C  0.50250093  0.13003623  0.19837942     0.12400
C173        C  0.00379415  0.07569533  0.17356137     0.63000
H174        H  0.99943017  0.03840190  0.21978670     0.12400
C175        C  0.48236417  0.08851615  0.30324684     0.55100
H176        H  0.49317288  0.12636274  0.25699193     0.08200
C177        C  0.47672289  0.12989586  0.18776106    -0.05600
C178        C  0.47968446  0.15487732  0.17272698    -0.06300
C179        C  0.50727141  0.18010951  0.16900324    -0.15900
C180        C  0.01925212  0.17174856  0.17557913    -0.01500
C181        C  0.01924020  0.14804330  0.19075332    -0.09100
C182        C  0.44612610  0.10381263  0.19306623     0.65200
H183        H  0.46032520  0.15522408  0.16424961     0.10700
C184        C  0.04813749  0.19843254  0.16640386     0.63600
H185        H  0.03989744  0.14910256  0.19673144     0.08000
F186        F  0.47991980  0.11341468  0.30735756    -0.19400
F187        F  0.50432992  0.09104973  0.32300792    -0.15700
F188        F  0.45556276  0.06468021  0.31132852    -0.19200
F189        F  0.02892569  0.10092228  0.16437980    -0.22500
F190        F  0.49256981  0.08381610  0.15394337    -0.24000
F191        F  0.00769428  0.05196715  0.16723733    -0.18000
F192        F  0.05057970  0.22330572  0.18032292    -0.20500
F193        F  0.04897099  0.20178707  0.13475280    -0.21600
F194        F  0.07225512  0.19585873  0.17518304    -0.18800
F195        F  0.42438780  0.10735369  0.17872435    -0.18900
F196        F  0.44013956  0.10035056  0.22426894    -0.22800
F197        F  0.44458019  0.07859977  0.18139930    -0.24400
C198        C  0.01142366  0.34286557  0.24758737    -0.11200
C199        C  0.49618003  0.33782700  0.22462068     0.11400
C200        C  0.47570251  0.34795156  0.22241413    -0.03000
C201        C  0.47734833  0.36868854  0.24416438    -0.05700
C202        C  0.49884814  0.37974286  0.26772880    -0.16500
C203        C  0.01423106  0.36383701  0.26969618     0.02400
C204        C  0.49525925  0.31483878  0.20379439     0.12400
C205        C  0.45172602  0.33634223  0.19778633     0.63000
H206        H  0.46118906  0.37585177  0.24339567     0.12400
C207        C  0.03557987  0.37095876  0.29653379     0.55100
H208        H  0.02470237  0.33235084  0.24950679     0.08200
C209        C  0.00685007  0.31380702  0.17860525    -0.05600
C210        C  0.00358219  0.28901381  0.16253166    -0.06300
C211        C  0.49516627  0.26896047  0.16936721    -0.15900
C212        C  0.47334884  0.26227236  0.19220110    -0.01500
C213        C  0.47459831  0.28538461  0.20985007    -0.09100
C214        C  0.03123099  0.34426877  0.16968912     0.65200
H215        H  0.01891155  0.29171749  0.14438445     0.10700
C216        C  0.44802434  0.23153739  0.19853108     0.63600
H217        H  0.45899568  0.28040787  0.22842856     0.08000
F218        F  0.05787270  0.39994699  0.29484129    -0.19400
F219        F  0.04855447  0.35349293  0.29638060    -0.15700
F220        F  0.02075640  0.36632583  0.32415219    -0.19200
F221        F  0.43196497  0.30699125  0.20301951    -0.22500
F222        F  0.46398470  0.33927949  0.16892848    -0.24000
F223        F  0.43622051  0.35139717  0.19774776    -0.18000
F224        F  0.45254120  0.22217619  0.22675007    -0.20500
F225        F  0.44474123  0.21130536  0.17615693    -0.21600
F226        F  0.42184748  0.23212966  0.19954941    -0.18800
F227        F  0.04698682  0.34341796  0.14448022    -0.18900
F228        F  0.05070768  0.35700252  0.19402852    -0.22800
F229        F  0.01928011  0.36173223  0.16215175    -0.24400
C230        C  0.33755069  0.48268967  0.41706938    -0.11200
C231        C  0.32879980  0.46191486  0.44067893     0.11400
C232        C  0.34249846  0.44466758  0.44392841    -0.03000
C233        C  0.36491743  0.44891268  0.42313632    -0.05700
C234        C  0.37430940  0.47022690  0.39976130    -0.16500
C235        C  0.36014374  0.48728658  0.39643071     0.02400
C236        C  0.30560010  0.45940458  0.46207887     0.12400
C237        C  0.34095947  0.93205200  0.47194808     0.63000
H238        H  0.37692969  0.94176114  0.42510456     0.12400
C239        C  0.36801352  0.50969741  0.37081991     0.55100
H240        H  0.32661022  0.49556559  0.41523754     0.08200
C241        C  0.31513524  0.98890418  0.48705176    -0.05600
C242        C  0.29144568  0.98460868  0.50577419    -0.06300
C243        C  0.25861525  0.45583654  0.49730689    -0.15900
C244        C  0.25659634  0.43883610  0.97596591    -0.01500
C245        C  0.27652751  0.43673189  0.45681290    -0.09100
C246        C  0.34532815  0.01576413  0.49179063     0.65200
H247        H  0.29469050  0.00061317  0.52343158     0.10700
C248        C  0.22612794  0.41198519  0.97235705     0.63600
H249        H  0.27251025  0.42122824  0.43832731     0.08000
F250        F  0.39600162  0.53325923  0.37587157    -0.19400
F251        F  0.34864525  0.52048344  0.36947013    -0.15700
F252        F  0.36698270  0.49689546  0.34256335    -0.19200
F253        F  0.30989759  0.40660454  0.96510311    -0.22500
F254        F  0.32014382  0.93027323  0.49268230    -0.24000
F255        F  0.36686985  0.94070201  0.48809237    -0.18000
F256        F  0.22620076  0.39182248  0.95171989    -0.20500
F257        F  0.20625378  0.42001846  0.96161863    -0.21600
F258        F  0.21670191  0.39823944  0.00053979    -0.18800
F259        F  0.34589687  0.03242238  0.51687752    -0.18900
F260        F  0.35281722  0.03331798  0.46594069    -0.22800
F261        F  0.36615449  0.00723883  0.49667802    -0.24400
C262        C  0.08587998  0.48243291  0.46493612    -0.11200
C263        C  0.11330628  0.49064408  0.45182590     0.11400
C264        C  0.11975616  0.99757449  0.41607566    -0.03000
C265        C  0.09647265  0.99694011  0.39938776    -0.05700
C266        C  0.06742143  0.48840636  0.41547942    -0.16500
C267        C  0.06248512  0.48078084  0.44725910     0.02400
C268        C  0.13439459  0.48592376  0.47007092     0.12400
C269        C  0.14776004  0.00340978  0.39958937     0.63000
H270        H  0.09927900  0.00151479  0.37494446     0.12400
C271        C  0.03249265  0.46885975  0.46217871     0.55100
H272        H  0.08257423  0.47573301  0.48886337     0.08200
C273        C  0.16272628  0.01147948  0.48075122    -0.05600
C274        C  0.17850455  0.00711810  0.00239961    -0.06300
C275        C  0.17814885  0.47910704  0.00045981    -0.15900
C276        C  0.14911471  0.45027621  0.48553067    -0.01500
C277        C  0.13052516  0.45754213  0.46921745    -0.09100
C278        C  0.16250808  0.04354410  0.98984110     0.65200
H279        H  0.19752807  0.02505304  0.01370660     0.10700
C280        C  0.14111759  0.41816079  0.48486255     0.63600
H281        H  0.11239870  0.44068725  0.45584831     0.08000
F282        F  0.03286799  0.46205856  0.49294682    -0.19400
F283        F  0.01212896  0.44349356  0.44708021    -0.15700
F284        F  0.02372216  0.48963254  0.46077436    -0.19200
F285        F  0.15226130  0.97975744  0.40329695    -0.22500
F286        F  0.17163536  0.02833552  0.41162371    -0.24000
F287        F  0.14636059  0.00769811  0.36828540    -0.18000
F288        F  0.11227491  0.40097620  0.49458897    -0.20500
F289        F  0.15872148  0.41199058  0.50365182    -0.21600
F290        F  0.14323995  0.41020728  0.45496238    -0.18800
F291        F  0.18949677  0.06288189  0.97698715    -0.18900
F292        F  0.16954582  0.55314851  0.01510917    -0.22800
F293        F  0.14969970  0.04738626  0.46327585    -0.24400
C294        C  0.36285383  0.48405530  0.21824718    -0.11200
C295        C  0.33301024  0.46643556  0.22592310     0.11400
C296        C  0.32534122  0.44969206  0.25333476    -0.03000
C297        C  0.34808217  0.45244780  0.27303744    -0.05700
C298        C  0.37802472  0.47170060  0.26649823    -0.16500
C299        C  0.38559436  0.48738060  0.23835026     0.02400
C300        C  0.31028341  0.46706727  0.20559304     0.12400
C301        C  0.29375724  0.92761959  0.25661880     0.63000
H302        H  0.34276393  0.93994908  0.29021475     0.12400
C303        C  0.41739662  0.50798895  0.22982660     0.55100
H304        H  0.36816605  0.49624162  0.19687616     0.08200
C305        C  0.30378045  0.49025027  0.20724183    -0.05600
C306        C  0.28119518  0.48895350  0.18830297    -0.06300
C307        C  0.26503029  0.46532000  0.16803904    -0.15900
C308        C  0.27157721  0.44213506  0.16636036    -0.01500
C309        C  0.29456746  0.44373094  0.18488146    -0.09100
C310        C  0.31569134  0.01425518  0.23227133     0.65200
H311        H  0.27570300  0.50630880  0.18934763     0.10700
C312        C  0.25360374  0.41526552  0.14610189     0.63600
H313        H  0.30016186  0.42644864  0.18379226     0.08000
F314        F  0.42862602  0.53239339  0.24883298    -0.19400
F315        F  0.42010273  0.51731757  0.19959240    -0.15700
F316        F  0.43373618  0.49400387  0.23322978    -0.19200
F317        F  0.27971086  0.40749780  0.24001995    -0.22500
F318        F  0.27702897  0.94127137  0.25914981    -0.24000
F319        F  0.29114749  0.91289678  0.28389861    -0.18000
F320        F  0.25826153  0.42303589  0.11537316    -0.20500
F321        F  0.22390370  0.40317797  0.15261038    -0.21600
F322        F  0.26124330  0.39381532  0.15088989    -0.18800
F323        F  0.30096099  0.02990390  0.23559598    -0.18900
F324        F  0.34995757  0.53097459  0.22230475    -0.22800
F325        F  0.31629647  0.00276249  0.26074622    -0.24400
C326        C  0.11907634  0.43490453  0.19114552    -0.11200
C327        C  0.12103445  0.46197326  0.19832217     0.11400
C328        C  0.14589780  0.48844365  0.18838263    -0.03000
C329        C  0.16833490  0.48692828  0.17204115    -0.05700
C330        C  0.16663323  0.45996535  0.16538087    -0.16500
C331        C  0.14138946  0.43346899  0.17426384     0.02400
C332        C  0.09875467  0.46263360  0.21919875     0.12400
C333        C  0.13457532  0.01064253  0.17070875     0.63000
H334        H  0.18776295  0.50689963  0.16474985     0.12400
C335        C  0.13834480  0.40400007  0.16586927     0.55100
H336        H  0.10022063  0.41495410  0.19939849     0.08200
C337        C  0.07106691  0.45813904  0.20893689    -0.05600
C338        C  0.05349434  0.46362679  0.22959287    -0.06300
C339        C  0.06260320  0.47306835  0.26015719    -0.15900
C340        C  0.08990359  0.47582554  0.27074283    -0.01500
C341        C  0.10700207  0.47003820  0.24999187    -0.09100
C342        C  0.05341259  0.94306788  0.17615748     0.65200
H343        H  0.02975817  0.95854554  0.22124498     0.10700
C344        C  0.10199406  0.48550860  0.30334826     0.63600
H345        H  0.12789773  0.47232678  0.25729205     0.08000
F346        F  0.11187612  0.38079047  0.17587201    -0.19400
F347        F  0.16108706  0.40152101  0.17919868    -0.15700
F348        F  0.13952652  0.40175659  0.13418155    -0.19200
F349        F  0.15256870  0.52374636  0.22683605    -0.22500
F350        F  0.10735782  0.00273222  0.15789509    -0.24000
F351        F  0.15603730  0.03065390  0.15116928    -0.18000
F352        F  0.12980824  0.48875364  0.30704724    -0.20500
F353        F  0.08368807  0.46474192  0.32441389    -0.21600
F354        F  0.10439179  0.51240443  0.30998138    -0.18800
F355        F  0.02811111  0.91660380  0.18183010    -0.18900
F356        F  0.05928804  0.42127837  0.17098364    -0.22800
F357        F  0.04557204  0.96144618  0.16119826    -0.24400
C358        C  0.31686075  0.33269417  0.46935934    -0.11200
C359        C  0.34357702  0.33273915  0.46583241     0.11400
C360        C  0.34779358  0.31124240  0.48102035    -0.03000
C361        C  0.32456060  0.28969437  0.49868003    -0.05700
C362        C  0.29596539  0.29388150  0.00326760    -0.16500
C363        C  0.30139855  0.32315489  0.00485427     0.02400
C364        C  0.36698676  0.35586048  0.44641720     0.12400
C365        C  0.37684685  0.31134384  0.47880648     0.63000
H366        H  0.32714639  0.27280936  0.51019775     0.12400
C367        C  0.28214604  0.33120037  0.02405650     0.55100
H368        H  0.31428774  0.34956253  0.45780155     0.08200
C369        C  0.36786538  0.35255625  0.41417023    -0.05600
C370        C  0.39142575  0.37478372  0.39758930    -0.06300
C371        C  0.41315906  0.40106947  0.41167192    -0.15900
C372        C  0.41098851  0.40499821  0.44386625    -0.01500
C373        C  0.38834412  0.38183062  0.46073646    -0.09100
C374        C  0.34364191  0.32602358  0.39718954     0.65200
H375        H  0.39255852  0.37187002  0.37302182     0.10700
C376        C  0.43149914  0.43358148  0.46041976     0.63600
H377        H  0.38666789  0.38396680  0.48538481     0.08000
F378        F  0.28891548  0.35997568  0.01925292    -0.19400
F379        F  0.28625316  0.32808337  0.05502444    -0.15700
F380        F  0.25274562  0.31306048  0.01644710    -0.19200
F381        F  0.39905188  0.33661730  0.49238915    -0.22500
F382        F  0.38388741  0.31049616  0.44829920    -0.24000
F383        F  0.37563868  0.28738732  0.49352444    -0.18000
F384        F  0.43015597  0.45653124  0.44637703    -0.20500
F385        F  0.46004556  0.43857188  0.45961273    -0.21600
F386        F  0.42388631  0.43309552  0.49104423    -0.18800
F387        F  0.34874513  0.32730390  0.36576461    -0.18900
F388        F  0.31688520  0.32486050  0.40152738    -0.22800
F389        F  0.34170435  0.30042606  0.40815168    -0.24400
C390        C  0.15529267  0.16542453  0.48356144    -0.11200
C391        C  0.16203102  0.14838098  0.46389887     0.11400
C392        C  0.19123172  0.15325330  0.46272977    -0.03000
C393        C  0.21274247  0.17475673  0.48224604    -0.05700
C394        C  0.20600916  0.19183147  0.50192781    -0.16500
C395        C  0.17696062  0.18745808  0.50247969     0.02400
C396        C  0.13844899  0.12708763  0.44311165     0.12400
C397        C  0.19980398  0.13654703  0.44024068     0.63000
H398        H  0.23528088  0.17906663  0.48169857     0.12400
C399        C  0.16051133  0.21412101  0.02098219     0.55100
H400        H  0.13293581  0.16165227  0.48345270     0.08200
C401        C  0.11859947  0.09781178  0.45201622    -0.05600
C402        C  0.09774020  0.07857207  0.43030829    -0.06300
C403        C  0.09519378  0.08844028  0.40104315    -0.15900
C404        C  0.11465718  0.11795456  0.39249493    -0.01500
C405        C  0.13600904  0.13686796  0.41383428    -0.09100
C406        C  0.11862218  0.08747951  0.48466242     0.65200
H407        H  0.08293472  0.05581239  0.43617868     0.10700
C408        C  0.11372780  0.12894994  0.36043704     0.63600
H409        H  0.15132023  0.15946129  0.40774738     0.08000
F410        F  0.16494389  0.21272893  0.05216825    -0.19400
F411        F  0.14062140  0.20083917  0.51641729    -0.15700
F412        F  0.17746767  0.24287103  0.01125262    -0.19200
F413        F  0.19589445  0.14305857  0.41033827    -0.22500
F414        F  0.18247811  0.10666459  0.44474288    -0.24000
F415        F  0.22902371  0.14384204  0.44381478    -0.18000
F416        F  0.08646683  0.12646934  0.35511658    -0.20500
F417        F  0.11858739  0.11235913  0.33891649    -0.21600
F418        F  0.13509562  0.15811566  0.35654904    -0.18800
F419        F  0.09558724  0.06298898  0.99182499    -0.18900
F420        F  0.10569534  0.10779212  0.00755437    -0.22800
F421        F  0.14263417  0.09922966  0.99561346    -0.24400
C422        C  0.34486783  0.31362070  0.19830698    -0.11200
C423        C  0.34818261  0.34177539  0.19713237     0.11400
C424        C  0.32784920  0.34660937  0.18010872    -0.03000
C425        C  0.30343866  0.32228290  0.16629488    -0.05700
C426        C  0.29916670  0.29371690  0.16896746    -0.16500
C427        C  0.32060278  0.28933108  0.18446874     0.02400
C428        C  0.37106783  0.36479637  0.21716294     0.12400
C429        C  0.33206989  0.37729452  0.17667392     0.63000
H430        H  0.28739151  0.32530800  0.15334192     0.12400
C431        C  0.31810940  0.25925599  0.18614510     0.55100
H432        H  0.36101631  0.31071077  0.21122002     0.08200
C433        C  0.36562786  0.36608965  0.24882554    -0.05600
C434        C  0.38816392  0.38750646  0.26719061    -0.06300
C435        C  0.41610063  0.40749493  0.25525041    -0.15900
C436        C  0.42140286  0.40653524  0.22321332    -0.01500
C437        C  0.39858026  0.38488065  0.20470908    -0.09100
C438        C  0.33643034  0.34423207  0.26352143     0.65200
H439        H  0.38406453  0.38837764  0.29150919     0.10700
C440        C  0.45075396  0.42779714  0.20849235     0.63600
H441        H  0.40201896  0.38325181  0.18034361     0.08000
F442        F  0.29374653  0.24044710  0.20330143    -0.19400
F443        F  0.34270710  0.26056828  0.19988900    -0.15700
F444        F  0.31536426  0.24785802  0.15674868    -0.19200
F445        F  0.35801577  0.39484649  0.16105149    -0.22500
F446        F  0.33354218  0.38960704  0.20532587    -0.24000
F447        F  0.30913160  0.37700619  0.16031036    -0.18000
F448        F  0.47351544  0.42639650  0.22326468    -0.20500
F449        F  0.45544676  0.45611996  0.21050152    -0.21600
F450        F  0.45148818  0.42144196  0.17761504    -0.18800
F451        F  0.33436669  0.35197666  0.29357028    -0.18900
F452        F  0.33385364  0.31670117  0.26392631    -0.22800
F453        F  0.31303355  0.34280911  0.24707915    -0.24400
C454        C  0.15112487  0.17035647  0.18703216    -0.11200
C455        C  0.15824209  0.15609007  0.20995430     0.11400
C456        C  0.18802981  0.16323816  0.21399916    -0.03000
C457        C  0.20979493  0.18468710  0.19482981    -0.05700
C458        C  0.20275005  0.19912822  0.17191261    -0.16500
C459        C  0.17291505  0.19218373  0.16820446     0.02400
C460        C  0.13395502  0.13356499  0.22925660     0.12400
C461        C  0.19676934  0.14833724  0.23854789     0.63000
H462        H  0.23266514  0.19043270  0.19757593     0.12400
C463        C  0.16394225  0.20806482  0.14508831     0.55100
H464        H  0.12817318  0.16425862  0.18409033     0.08200
C465        C  0.12254756  0.14128235  0.25495868    -0.05600
C466        C  0.10101223  0.11871282  0.27331409    -0.06300
C467        C  0.09085408  0.08882459  0.26712392    -0.15900
C468        C  0.10057190  0.08123775  0.23982751    -0.01500
C469        C  0.12207170  0.10383313  0.22142839    -0.09100
C470        C  0.13325173  0.17322483  0.26308791     0.65200
H471        H  0.09256084  0.12437256  0.29334194     0.10700
C472        C  0.08850646  0.04959591  0.22991764     0.63600
H473        H  0.13043776  0.09842963  0.20109716     0.08000
F474        F  0.13557166  0.20272545  0.15033313    -0.19400
F475        F  0.16478258  0.19852787  0.11560826    -0.15700
F476        F  0.18276883  0.23810649  0.14711139    -0.19200
F477        F  0.18349444  0.11856220  0.23239003    -0.22500
F478        F  0.18792053  0.15242866  0.26724911    -0.24000
F479        F  0.22699943  0.15952913  0.23961474    -0.18000
F480        F  0.10081952  0.03700800  0.24819206    -0.20500
F481        F  0.09522031  0.04746198  0.19949979    -0.21600
F482        F  0.05810751  0.03419728  0.23267500    -0.18800
F483        F  0.12042965  0.17592349  0.28986524    -0.18900
F484        F  0.12615217  0.18630054  0.23948944    -0.22800
F485        F  0.16350269  0.18818047  0.26737715    -0.24400
C486        C  0.22561044  0.22174461  0.65271876     0.03800
C487        C  0.25050248  0.24334734  0.66847934    -0.12300
C488        C  0.27610356  0.26250184  0.65255154     0.01300
C489        C  0.27697730  0.26064956  0.62043235    -0.10800
C490        C  0.25202674  0.24014516  0.60342975     0.03800
C491        C  0.22649007  0.22027726  0.62025897    -0.10300
H492        H  0.25006708  0.24514068  0.69336156     0.09400
H493        H  0.29745659  0.27549280  0.60917208     0.07000
H494        H  0.20681618  0.20388467  0.60862687     0.06800
C495        C  0.23043314  0.21610593  0.51928656     0.03800
C496        C  0.25203762  0.24032492  0.50326948    -0.12300
C497        C  0.27376531  0.26470788  0.51925091     0.01300
C498        C  0.27361355  0.26486481  0.55167999    -0.10800
C499        C  0.25261090  0.24007186  0.56855577     0.03800
C500        C  0.23169164  0.21541549  0.55154057    -0.10300
H501        H  0.24533160  0.24967672  0.97912919     0.09400
H502        H  0.28987431  0.28467124  0.56317832     0.07000
H503        H  0.21598928  0.19542384  0.56290539     0.06800
C504        C  0.23680960  0.45611403  0.64930107     0.03800
C505        C  0.21296215  0.45500147  0.66526018    -0.12300
C506        C  0.18932738  0.45415656  0.64910713     0.01300
C507        C  0.18921957  0.45373903  0.61688506    -0.10800
C508        C  0.21371681  0.45669257  0.60013356     0.03800
C509        C  0.23773345  0.45846355  0.61702249    -0.10300
H510        H  0.21291509  0.45505291  0.69025370     0.09400
H511        H  0.16976125  0.45133286  0.60543737     0.07000
H512        H  0.25773800  0.46260886  0.60554403     0.06800
C513        C  0.23507414  0.45678835  0.51530935     0.03800
C514        C  0.23399269  0.45362903  0.54757934    -0.12300
C515        C  0.21445079  0.45887462  0.56550206     0.01300
C516        C  0.19558572  0.46658707  0.54982839    -0.10800
C517        C  0.19536464  0.46788183  0.51770629     0.03800
C518        C  0.21580916  0.46413277  0.50058528    -0.10300
H519        H  0.24867089  0.44724913  0.55823749     0.09400
H520        H  0.18082876  0.47183096  0.56203646     0.07000
H521        H  0.22106067  0.47160127  0.97585997     0.06800
C522        C  0.49934051  0.24472971  0.65525992     0.03800
C523        C  0.49594537  0.24325524  0.62310867    -0.12300
C524        C  0.49979646  0.22276662  0.60541119     0.01300
C525        C  0.50699315  0.20359432  0.62109908    -0.10800
C526        C  0.50932098  0.20411056  0.65334468     0.03800
C527        C  0.50608275  0.22512773  0.67027393    -0.10300
H528        H  0.48947745  0.25776329  0.61233514     0.09400
H529        H  0.51026751  0.18755036  0.60869832     0.07000
H530        H  0.50777905  0.22556689  0.69519149     0.06800
C531        C  0.49010836  0.24208378  0.52272818     0.03800
C532        C  0.48295405  0.21580074  0.50723782    -0.12300
C533        C  0.48320596  0.19259760  0.52278521     0.01300
C534        C  0.48738331  0.19433660  0.55480582    -0.10800
C535        C  0.49485505  0.22054320  0.57109497     0.03800
C536        C  0.49763259  0.24475997  0.55414996    -0.10300
H537        H  0.48366523  0.21152010  0.98021588     0.09400
H538        H  0.48530165  0.17521017  0.56644317     0.07000
H539        H  0.50648060  0.26604069  0.56501270     0.06800
O540        O  0.01762503  0.41778796  0.87249043    -0.87500
C541        C  0.07085881  0.06704029  0.79158780     1.12600
O542        O  0.49073833  0.45054212  0.83650863    -1.35300
O543        O  0.07745165  0.04961167  0.86943311    -0.88900
O544        O  0.46912206  0.39147182  0.87070487    -0.89600
O545        O  0.45887754  0.44958184  0.90099743    -0.78400
O546        O  0.04876460  0.48369213  0.86372648    -1.00500
C547        C  0.48175966  0.02954852  0.89378768     1.22600
O548        O  0.45694589  0.47814444  0.83474794    -1.35400
Mn549      Mn  0.48906893  0.47965690  0.80171840     1.82100
O550        O  0.48318699  0.00735137  0.90162567    -0.77500
O551        O  0.04813395  0.06941591  0.87262236    -0.86900
C552        C  0.48846899  0.03462758  0.78137166     1.13700
C553        C  0.07076611  0.06792554  0.88080459     1.08400
O554        O  0.45919207  0.44755410  0.77063068    -0.78400
O555        O  0.01757352  0.01068392  0.83628183    -1.32100
O556        O  0.43359568  0.42104562  0.80732980    -0.97700
C557        C  0.39857817  0.47535896  0.87632318     1.07100
Mn558      Mn  0.01716611  0.05092130  0.83678310     1.48600
O559        O  0.39689547  0.45116163  0.86864397    -0.86900
Mn560      Mn  0.45299428  0.40795475  0.83657345     1.49600
O561        O  0.01748742  0.41462549  0.80399696    -0.90700
C562        C  0.04520325  0.48524103  0.89127985     1.20300
C563        C  0.49463627  0.39610903  0.79479979     1.12400
Mn564      Mn  0.48861617  0.48073502  0.86901395     1.81000
O565        O  0.48614006  0.03628411  0.80896832    -0.95900
Mn566      Mn  0.03072267  0.44865192  0.83673722     1.49300
C567        C  0.49387871  0.39718622  0.88224703     1.08900
Mn568      Mn  0.45130841  0.01643531  0.83524075     1.49900
C569        C  0.39989479  0.47279043  0.78837056     1.11800
O570        O  0.43269691  0.42117404  0.86514251    -1.01700
O571        O  0.05092848  0.07091389  0.80387326    -0.91400
C572        C  0.43638650  0.42615011  0.89277177     1.23100
O573        O  0.48296866  0.03470134  0.86630410    -1.02100
O574        O  0.07585543  0.04663346  0.80009401    -0.89500
O575        O  0.42028677  0.00161395  0.79882763    -0.89100
O576        O  0.46924873  0.39154058  0.80251010    -0.89100
Mn577      Mn  0.06034199  0.01553178  0.83636999     1.47900
O578        O  0.48842127  0.01194956  0.77165705    -0.77600
C579        C  0.43721146  0.42427797  0.77958852     1.16200
O580        O  0.02105902  0.48263934  0.89954169    -0.76300
O581        O  0.02037467  0.47869399  0.76915206    -0.70900
Mn582      Mn  0.41654409  0.43762161  0.83536757     1.51100
O583        O  0.41691507  0.00045302  0.86710415    -0.88300
O584        O  0.04651794  0.48001123  0.80650163    -0.95800
O585        O  0.39688530  0.44942524  0.80047453    -0.90800
C586        C  0.04257147  0.47773545  0.77889582     1.13900
C587        C  0.50460622  0.14398568  0.97017664    -0.11200
C588        C  0.47879159  0.11677364  0.97325223     0.11400
C589        C  0.45707429  0.11351144  0.99474853    -0.03000
C590        C  0.45546134  0.13997785  0.50666707    -0.05700
C591        C  0.48133777  0.16744896  0.50513513    -0.16500
C592        C  0.50915717  0.16870930  0.98706709     0.02400
C593        C  0.47593322  0.09220960  0.95386429     0.12400
C594        C  0.42496939  0.08569673  0.49342764     0.63000
H595        H  0.43763707  0.13788936  0.52107525     0.12400
C596        C  0.02932156  0.19218023  0.99083896     0.55100
H597        H  0.01557371  0.14228589  0.95848665     0.08200
C598        C  0.46668817  0.08902723  0.92274694    -0.05600
C599        C  0.46783320  0.06740873  0.90460764    -0.06300
C600        C  0.47867397  0.04949331  0.91621651    -0.15900
C601        C  0.48774322  0.05273003  0.94763597    -0.01500
C602        C  0.48608085  0.07408863  0.96589918    -0.09100
C603        C  0.45636688  0.10889537  0.90855986     0.65200
H604        H  0.46082317  0.06484559  0.88073597     0.10700
C605        C  0.00059791  0.03738780  0.95907500     0.63600
H606        H  0.98802065  0.07592679  0.98753323     0.08000
F607        F  0.02803565  0.21491434  0.97633284    -0.19400
F608        F  0.05148076  0.18900493  0.97712641    -0.15700
F609        F  0.03691740  0.19947318  0.02149701    -0.19200
F610        F  0.43260513  0.06525333  0.50306808    -0.22500
F611        F  0.41441566  0.07203453  0.97411540    -0.24000
F612        F  0.40578337  0.08640056  0.51489172    -0.18000
F613        F  0.01032385  0.04680116  0.98890377    -0.20500
F614        F  0.02487046  0.04291052  0.94160450    -0.21600
F615        F  0.98105977  0.00757103  0.96000378    -0.18800
F616        F  0.44838280  0.10204705  0.87789136    -0.18900
F617        F  0.47871975  0.13787149  0.91004359    -0.22800
F618        F  0.43216377  0.10605711  0.92432905    -0.24400
C619        C  0.47447497  0.29747149  0.98718508    -0.11200
C620        C  0.49238495  0.30668570  0.96096327     0.11400
C621        C  0.00265866  0.28983219  0.95508001    -0.03000
C622        C  0.00132102  0.26840173  0.97539927    -0.05700
C623        C  0.49215315  0.26389586  0.00057371    -0.16500
C624        C  0.47314379  0.27542807  0.00663088     0.02400
C625        C  0.49191042  0.32955581  0.94124386     0.12400
C626        C  0.01806065  0.29431946  0.92422829     0.63000
H627        H  0.01299242  0.25680539  0.96979057     0.12400
C628        C  0.45564528  0.27298787  0.54034092     0.55100
H629        H  0.46112810  0.30750353  0.99204674     0.08200
C630        C  0.46809594  0.32343455  0.92121644    -0.05600
C631        C  0.46940882  0.34647038  0.90347753    -0.06300
C632        C  0.49406645  0.37517038  0.90422961    -0.15900
C633        C  0.51804893  0.38087455  0.92428280    -0.01500
C634        C  0.51598585  0.35807945  0.94302961    -0.09100
C635        C  0.44187066  0.29251813  0.91779935     0.65200
H636        H  0.45126916  0.34177288  0.88801673     0.10700
C637        C  0.05012585  0.40147493  0.91167933     0.63600
H638        H  0.03466727  0.35774767  0.95277254     0.08000
F639        F  0.43057971  0.27383771  0.02973817    -0.19400
F640        F  0.47183528  0.28268708  0.56733504    -0.15700
F641        F  0.43785005  0.24275551  0.54117991    -0.19200
F642        F  0.04295696  0.32180344  0.92315774    -0.22500
F643        F  0.99907750  0.29170403  0.90055842    -0.24000
F644        F  0.02678845  0.27368570  0.91918896    -0.18000
F645        F  0.56096484  0.41764486  0.89930116    -0.20500
F646        F  0.07133029  0.39876237  0.92829212    -0.21600
F647        F  0.05266967  0.42806547  0.91942602    -0.18800
F648        F  0.42203567  0.29104905  0.89563063    -0.18900
F649        F  0.42692188  0.28330554  0.94537339    -0.22800
F650        F  0.45158066  0.27337117  0.90919018    -0.24400
C651        C  0.49298177  0.10535289  0.75046105    -0.11200
C652        C  0.50283352  0.10601865  0.72048622     0.11400
C653        C  0.00511129  0.08012385  0.70680816    -0.03000
C654        C  0.00102756  0.05764304  0.72752783    -0.05700
C655        C  0.49325161  0.05973510  0.76106355    -0.16500
C656        C  0.48877602  0.08323254  0.77141148     0.02400
C657        C  0.50538887  0.12998264  0.70019374     0.12400
C658        C  0.01640499  0.08075196  0.67449268     0.63000
H659        H  0.00564688  0.04063908  0.72006635     0.12400
C660        C  0.47981004  0.08581322  0.80421384     0.55100
H661        H  0.48874644  0.12278238  0.75730280     0.08200
C662        C  0.48051434  0.12751958  0.68428842    -0.05600
C663        C  0.48326605  0.15214907  0.66861595    -0.06300
C664        C  0.50958416  0.17924042  0.66925919    -0.15900
C665        C  0.02930216  0.17518375  0.67559069    -0.01500
C666        C  0.02732932  0.15063961  0.69104451    -0.09100
C667        C  0.45084091  0.09935470  0.68488163     0.65200
H668        H  0.46444119  0.15079682  0.65652198     0.10700
C669        C  0.05912022  0.20173404  0.66896885     0.63600
H670        H  0.04710900  0.15119775  0.69957760     0.08000
F671        F  0.47597904  0.10992786  0.80799514    -0.19400
F672        F  0.50159649  0.08915070  0.82474270    -0.15700
F673        F  0.45338465  0.06120674  0.81159420    -0.19200
F674        F  0.04376129  0.10559501  0.67105857    -0.22500
F675        F  0.50711531  0.08736364  0.65631005    -0.24000
F676        F  0.01939641  0.05642659  0.66852274    -0.18000
F677        F  0.06121574  0.22631239  0.68323483    -0.20500
F678        F  0.06233759  0.20639445  0.63750068    -0.21600
F679        F  0.08204448  0.19797230  0.67955765    -0.18800
F680        F  0.43025067  0.10102582  0.66608252    -0.18900
F681        F  0.43999998  0.09389589  0.71460533    -0.22800
F682        F  0.45389680  0.07605437  0.67473182    -0.24400
C683        C  0.01323982  0.34263896  0.74900577    -0.11200
C684        C  0.49465763  0.33429910  0.72923474     0.11400
C685        C  0.47745900  0.34787894  0.72374510    -0.03000
C686        C  0.47858415  0.36850375  0.74539523    -0.05700
C687        C  0.49627636  0.37582567  0.77205462    -0.16500
C688        C  0.01533937  0.36357665  0.77074809     0.02400
C689        C  0.49484983  0.31213330  0.70791555     0.12400
C690        C  0.45788855  0.34045364  0.69534393     0.63000
H691        H  0.46537347  0.37891157  0.74184235     0.12400
C692        C  0.03871541  0.37345487  0.79594152     0.55100
H693        H  0.02825241  0.33404348  0.75021411     0.08200
C694        C  0.01168107  0.31603002  0.68037801    -0.05600
C695        C  0.01117995  0.29284594  0.66339368    -0.06300
C696        C  0.49640277  0.26736836  0.67301218    -0.15900
C697        C  0.47179131  0.26040268  0.69200969    -0.01500
C698        C  0.47173809  0.28295690  0.70968708    -0.09100
C699        C  0.03443155  0.34765421  0.67311963     0.65200
H700        H  0.02735094  0.29759684  0.64551411     0.10700
C701        C  0.44529893  0.22958223  0.69268643     0.63600
H702        H  0.45373891  0.27797442  0.72531058     0.08000
F703        F  0.05906920  0.40292812  0.79245025    -0.19400
F704        F  0.05394738  0.35812828  0.79494531    -0.15700
F705        F  0.02558795  0.36880340  0.82457399    -0.19200
F706        F  0.43582656  0.31135487  0.69634775    -0.22500
F707        F  0.47440701  0.34498707  0.66900387    -0.24000
F708        F  0.44467710  0.35765550  0.69340494    -0.18000
F709        F  0.45341084  0.20990350  0.70363654    -0.20500
F710        F  0.43390994  0.22134804  0.66318570    -0.21600
F711        F  0.42317574  0.22794617  0.71148467    -0.18800
F712        F  0.05133305  0.34959531  0.64777351    -0.18900
F713        F  0.05318960  0.36023341  0.69801192    -0.22800
F714        F  0.02046726  0.36357154  0.66689842    -0.24400
C715        C  0.33856576  0.48584379  0.91370980    -0.11200
C716        C  0.33183196  0.46761972  0.93951759     0.11400
C717        C  0.34675688  0.45168877  0.94432613    -0.03000
C718        C  0.36926916  0.45575872  0.92382669    -0.05700
C719        C  0.37650307  0.47442847  0.89829176    -0.16500
C720        C  0.36047373  0.48930424  0.89262308     0.02400
C721        C  0.30865042  0.46537451  0.96086761     0.12400
C722        C  0.33803386  0.93369972  0.97353715     0.63000
H723        H  0.37621256  0.94195880  0.92678116     0.12400
C724        C  0.36534255  0.50757084  0.86377104     0.55100
H725        H  0.32629004  0.49723786  0.91016998     0.08200
C726        C  0.31428833  0.99152507  0.98403554    -0.05600
C727        C  0.29092852  0.98847494  0.00253462    -0.06300
C728        C  0.26263957  0.46075808  0.99857982    -0.15900
C729        C  0.25280718  0.43425375  0.47441451    -0.01500
C730        C  0.27982606  0.44182149  0.95713448    -0.09100
C731        C  0.34458596  0.01866430  0.98740186     0.65200
H732        H  0.29447670  0.00554437  0.01895897     0.10700
C733        C  0.22192795  0.40859333  0.46880297     0.63600
H734        H  0.27567357  0.42587744  0.93909687     0.08000
F735        F  0.39281719  0.53262984  0.86499861    -0.19400
F736        F  0.34439641  0.51623951  0.86068810    -0.15700
F737        F  0.36349397  0.49126637  0.83786037    -0.19200
F738        F  0.30446733  0.40076415  0.46600362    -0.22500
F739        F  0.34199447  0.94948272  0.00044084    -0.24000
F740        F  0.35578876  0.92110937  0.97520346    -0.18000
F741        F  0.22214758  0.38788874  0.44909830    -0.20500
F742        F  0.20429464  0.41838999  0.45566360    -0.21600
F743        F  0.20970048  0.39485697  0.49640965    -0.18800
F744        F  0.34551923  0.03665054  0.01131693    -0.18900
F745        F  0.35182633  0.03489535  0.96058154    -0.22800
F746        F  0.36551055  0.01048157  0.99329268    -0.24400
C747        C  0.08948393  0.48575262  0.96224995    -0.11200
C748        C  0.11692417  0.49451978  0.94869834     0.11400
C749        C  0.11689540  0.99902761  0.92227294    -0.03000
C750        C  0.09420191  0.99837869  0.90445610    -0.05700
C751        C  0.06949923  0.49038841  0.91311755    -0.16500
C752        C  0.06541639  0.48323226  0.94500705     0.02400
C753        C  0.13887973  0.49082394  0.96690012     0.12400
C754        C  0.14572508  0.00547625  0.90718110     0.63000
H755        H  0.09814300  0.00389114  0.88025954     0.12400
C756        C  0.03563690  0.47104310  0.96051142     0.55100
H757        H  0.08676434  0.47947869  0.98630130     0.08200
C758        C  0.15758530  0.01250851  0.98797191    -0.05600
C759        C  0.18202866  0.00513977  0.49729225    -0.06300
C760        C  0.17329649  0.47287308  0.50198437    -0.15900
C761        C  0.15271156  0.45558166  0.98658346    -0.01500
C762        C  0.13405651  0.46211095  0.96922636    -0.09100
C763        C  0.17001852  0.04331419  0.47980242     0.65200
H764        H  0.20137859  0.02286326  0.50839158     0.10700
C765        C  0.14340283  0.42325772  0.98996490     0.63600
H766        H  0.11492315  0.44436947  0.95786970     0.08000
F767        F  0.03660602  0.46407088  0.99110152    -0.19400
F768        F  0.01501887  0.44572013  0.94552285    -0.15700
F769        F  0.02670517  0.49172122  0.95973735    -0.19200
F770        F  0.14987743  0.98155583  0.91044247    -0.22500
F771        F  0.16904225  0.02976419  0.92091133    -0.24000
F772        F  0.14597768  0.01111723  0.87598882    -0.18000
F773        F  0.11504814  0.40835100  0.00160929    -0.20500
F774        F  0.16130531  0.41821865  0.00955483    -0.21600
F775        F  0.14346716  0.41166230  0.96131726    -0.18800
F776        F  0.19741396  0.06017745  0.46647736    -0.18900
F777        F  0.15983421  0.54351735  0.52391342    -0.22800
F778        F  0.14098079  0.04678943  0.97476535    -0.24400
C779        C  0.36164485  0.48292478  0.71770636    -0.11200
C780        C  0.33212457  0.46231177  0.72377892     0.11400
C781        C  0.32520746  0.44369544  0.74973562    -0.03000
C782        C  0.34818961  0.44767530  0.76974004    -0.05700
C783        C  0.37767180  0.46948554  0.76470438    -0.16500
C784        C  0.38462252  0.48697232  0.73780907     0.02400
C785        C  0.30881365  0.46188061  0.70355757     0.12400
C786        C  0.29241284  0.93638303  0.76488707     0.63000
H787        H  0.34165719  0.94443934  0.79544391     0.12400
C788        C  0.41596537  0.50989048  0.73020291     0.55100
H789        H  0.36644911  0.49646435  0.69737201     0.08200
C790        C  0.30099188  0.48415939  0.70524536    -0.05600
C791        C  0.27756076  0.48145131  0.68683914    -0.06300
C792        C  0.26196055  0.45751231  0.66682491    -0.15900
C793        C  0.26995610  0.43535439  0.66485259    -0.01500
C794        C  0.29373029  0.43829918  0.68296478    -0.09100
C795        C  0.31686503  0.02132103  0.72763762     0.65200
H796        H  0.27137024  0.49832271  0.68762944     0.10700
C797        C  0.25289446  0.40818841  0.64473233     0.63600
H798        H  0.30063276  0.42199861  0.68142999     0.08000
F799        F  0.42496218  0.53369309  0.74973982    -0.19400
F800        F  0.41835697  0.51957179  0.70018926    -0.15700
F801        F  0.43438522  0.49822314  0.73345881    -0.19200
F802        F  0.28346737  0.39886136  0.73368715    -0.22500
F803        F  0.27851644  0.95291281  0.76672650    -0.24000
F804        F  0.28988864  0.92334431  0.79326213    -0.18000
F805        F  0.25725809  0.41582164  0.61396513    -0.20500
F806        F  0.22309955  0.39492182  0.65125568    -0.21600
F807        F  0.26184402  0.38771988  0.64968965    -0.18800
F808        F  0.30477447  0.03945901  0.72471934    -0.18900
F809        F  0.34481112  0.52987080  0.71218053    -0.22800
F810        F  0.31472114  0.01308155  0.75818084    -0.24400
C811        C  0.11885099  0.43405552  0.69295999    -0.11200
C812        C  0.12163181  0.46187239  0.69722595     0.11400
C813        C  0.14687676  0.48720723  0.68591732    -0.03000
C814        C  0.16816037  0.48363344  0.66966957    -0.05700
C815        C  0.16549535  0.45585925  0.66570590    -0.16500
C816        C  0.14059053  0.43063823  0.67741219     0.02400
C817        C  0.09999583  0.46429550  0.71735666     0.12400
C818        C  0.13563726  0.00929468  0.67905745     0.63000
H819        H  0.18762454  0.50263457  0.66073732     0.12400
C820        C  0.13735845  0.40043775  0.67352661     0.55100
H821        H  0.09985453  0.41513863  0.70266788     0.08200
C822        C  0.07294443  0.46095692  0.70648350    -0.05600
C823        C  0.05482065  0.46549100  0.72724908    -0.06300
C824        C  0.06275532  0.47272511  0.75848809    -0.15900
C825        C  0.08957669  0.47459074  0.76945426    -0.01500
C826        C  0.10741979  0.47020631  0.74846559    -0.09100
C827        C  0.05237313  0.93887269  0.68116770     0.65200
H828        H  0.03002781  0.95715203  0.72477141     0.10700
C829        C  0.10027532  0.48155240  0.80281908     0.63600
H830        H  0.12793738  0.47176708  0.75602748     0.08000
F831        F  0.11186547  0.37876234  0.68703143    -0.19400
F832        F  0.16107816  0.39994097  0.68714073    -0.15700
F833        F  0.13644746  0.39392924  0.64248386    -0.19200
F834        F  0.15672009  0.52399757  0.72354403    -0.22500
F835        F  0.10815675  0.00341987  0.66878562    -0.24000
F836        F  0.15658278  0.02971200  0.65940434    -0.18000
F837        F  0.12734523  0.48321489  0.80713543    -0.20500
F838        F  0.08047105  0.45972358  0.82204915    -0.21600
F839        F  0.10357960  0.50841978  0.81143517    -0.18800
F840        F  0.02559547  0.91425449  0.68781146    -0.18900
F841        F  0.06140974  0.42578630  0.66663546    -0.22800
F842        F  0.04710887  0.95802803  0.66409854    -0.24400
C843        C  0.32508603  0.34503962  0.98798781    -0.11200
C844        C  0.34340690  0.33859493  0.96996145     0.11400
C845        C  0.33859255  0.30952213  0.96925458    -0.03000
C846        C  0.31452592  0.28746963  0.98561652    -0.05700
C847        C  0.29762803  0.28927339  0.50173312    -0.16500
C848        C  0.29361507  0.31113285  0.48704372     0.02400
C849        C  0.36676858  0.36243014  0.95103687     0.12400
C850        C  0.35910170  0.30201594  0.95168011     0.63000
H851        H  0.31017339  0.26501120  0.98512003     0.12400
C852        C  0.26499683  0.31170372  0.49026592     0.55100
H853        H  0.32939517  0.36739328  0.98865570     0.08200
C854        C  0.36067934  0.36859243  0.92107503    -0.05600
C855        C  0.38410441  0.38959162  0.90327999    -0.06300
C856        C  0.41325850  0.40548140  0.91468502    -0.15900
C857        C  0.41896548  0.40029536  0.94545199    -0.01500
C858        C  0.39550166  0.37865527  0.96304113    -0.09100
C859        C  0.32944150  0.35318599  0.90807404     0.65200
H860        H  0.37964080  0.39389264  0.88006395     0.10700
C861        C  0.44961090  0.41674550  0.95948240     0.63600
H862        H  0.39941203  0.37387306  0.98629452     0.08000
F863        F  0.26615487  0.33556735  0.47537416    -0.19400
F864        F  0.25940513  0.31340411  0.52112068    -0.15700
F865        F  0.24193933  0.28643594  0.47762735    -0.19200
F866        F  0.38726598  0.31767745  0.96393834    -0.22500
F867        F  0.35991633  0.30912312  0.92090502    -0.24000
F868        F  0.35011406  0.27238787  0.95345621    -0.18000
F869        F  0.45848048  0.44629391  0.96160602    -0.20500
F870        F  0.46910900  0.41289375  0.94129374    -0.21600
F871        F  0.45054884  0.40691745  0.98884054    -0.18800
F872        F  0.32845329  0.36176815  0.87814252    -0.18900
F873        F  0.31176876  0.35991379  0.92600810    -0.22800
F874        F  0.31794465  0.32308522  0.90796390    -0.24400
C875        C  0.14758061  0.17085790  0.98548113    -0.11200
C876        C  0.15518749  0.15442035  0.96579355     0.11400
C877        C  0.18514854  0.16187288  0.96322322    -0.03000
C878        C  0.20629955  0.18439984  0.98210551    -0.05700
C879        C  0.19878809  0.20078761  0.00196212    -0.16500
C880        C  0.16908635  0.19458171  0.00311117     0.02400
C881        C  0.13194879  0.13169669  0.94551316     0.12400
C882        C  0.19491641  0.14685707  0.93981975     0.63000
H883        H  0.22922801  0.19001690  0.98094828     0.12400
C884        C  0.16917933  0.20675551  0.52196030     0.55100
H885        H  0.12473078  0.16556240  0.98603129     0.08200
C886        C  0.11360869  0.10216422  0.95484631    -0.05600
C887        C  0.09399432  0.08153697  0.93306906    -0.06300
C888        C  0.09152624  0.09007777  0.90304386    -0.15900
C889        C  0.10956435  0.11972710  0.89405120    -0.01500
C890        C  0.12919711  0.14013266  0.91565579    -0.09100
C891        C  0.11437563  0.09283128  0.98776563     0.65200
H892        H  0.08030012  0.05869106  0.93936794     0.10700
C893        C  0.10906546  0.12941296  0.86122150     0.63600
H894        H  0.14324600  0.16288928  0.90919075     0.08000
F895        F  0.17153201  0.20200717  0.55289685    -0.19400
F896        F  0.13111453  0.20581172  0.01649907    -0.15700
F897        F  0.18809765  0.23605107  0.51529677    -0.19200
F898        F  0.18919363  0.15269855  0.91031758    -0.22500
F899        F  0.17990319  0.11682317  0.94440997    -0.24000
F900        F  0.22485772  0.15670231  0.94199200    -0.18000
F901        F  0.08159087  0.12583326  0.85443791    -0.20500
F902        F  0.11513855  0.11264931  0.84108454    -0.21600
F903        F  0.12989115  0.15864271  0.85665693    -0.18800
F904        F  0.09940345  0.05760974  0.48774629    -0.18900
F905        F  0.10994617  0.10224810  0.50471250    -0.22800
F906        F  0.14651448  0.09314779  0.49304461    -0.24400
C907        C  0.34766427  0.30596254  0.69756862    -0.11200
C908        C  0.34731808  0.33214251  0.70314600     0.11400
C909        C  0.32426955  0.33593096  0.69088651    -0.03000
C910        C  0.30169337  0.31273179  0.67390434    -0.05700
C911        C  0.30141149  0.28612533  0.66944718    -0.16500
C912        C  0.32456887  0.28244079  0.68141480     0.02400
C913        C  0.37094968  0.35488403  0.72276413     0.12400
C914        C  0.32326173  0.36408449  0.69618042     0.63000
H915        H  0.28368290  0.31491290  0.66438119     0.12400
C916        C  0.32430783  0.25353571  0.67786633     0.55100
H917        H  0.36575369  0.30380990  0.70691246     0.08200
C918        C  0.36970269  0.35299586  0.75522795    -0.05600
C919        C  0.39202534  0.37602913  0.77242699    -0.06300
C920        C  0.41568795  0.40077832  0.75843137    -0.15900
C921        C  0.41754272  0.40181415  0.72568419    -0.01500
C922        C  0.39497864  0.37861722  0.70847467    -0.09100
C923        C  0.34475041  0.32690606  0.77170829     0.65200
H924        H  0.39082251  0.37480012  0.79731813     0.10700
C925        C  0.44280578  0.42698102  0.70868873     0.63600
H926        H  0.39559092  0.37892308  0.68351802     0.08000
F927        F  0.29970628  0.23145181  0.69228895    -0.19400
F928        F  0.34911990  0.25471677  0.69089823    -0.15700
F929        F  0.32344274  0.24662980  0.64695629    -0.19200
F930        F  0.34817764  0.38773556  0.68409524    -0.22500
F931        F  0.32200668  0.36865673  0.72740437    -0.24000
F932        F  0.29885021  0.36299195  0.68223776    -0.18000
F933        F  0.46934948  0.42939648  0.71772493    -0.20500
F934        F  0.44304113  0.45292911  0.71500130    -0.21600
F935        F  0.44026781  0.42279273  0.67705273    -0.18800
F936        F  0.34777534  0.32969133  0.80346796    -0.18900
F937        F  0.34444210  0.30129407  0.76344656    -0.22800
F938        F  0.31796412  0.32447699  0.76385140    -0.24400
C939        C  0.14767482  0.17007783  0.68405651    -0.11200
C940        C  0.15407467  0.15560628  0.70747208     0.11400
C941        C  0.18378191  0.16307432  0.71274019    -0.03000
C942        C  0.20600167  0.18448036  0.69404381    -0.05700
C943        C  0.19988634  0.19953360  0.67096346    -0.16500
C944        C  0.17014417  0.19283631  0.66652000     0.02400
C945        C  0.12958808  0.13300564  0.72668138     0.12400
C946        C  0.19205417  0.14848936  0.73809246     0.63000
H947        H  0.22864273  0.18960019  0.69725880     0.12400
C948        C  0.16072207  0.20950577  0.64498119     0.55100
H949        H  0.12487778  0.16425136  0.68019486     0.08200
C950        C  0.11772552  0.14070335  0.75201271    -0.05600
C951        C  0.09793817  0.11831698  0.77184186    -0.06300
C952        C  0.08990916  0.08861565  0.76751798    -0.15900
C953        C  0.10015125  0.08083102  0.74073121    -0.01500
C954        C  0.11970949  0.10323418  0.72072971    -0.09100
C955        C  0.12641932  0.17249746  0.75844017     0.65200
H956        H  0.08927604  0.12408348  0.79162855     0.10700
C957        C  0.09070485  0.04918402  0.73303393     0.63600
H958        H  0.12854743  0.09778210  0.70082426     0.08000
F959        F  0.14298768  0.21768856  0.66083626    -0.19400
F960        F  0.14467115  0.19137387  0.62068908    -0.15700
F961        F  0.18408178  0.23487361  0.63335590    -0.19200
F962        F  0.18030037  0.11894613  0.73151009    -0.22500
F963        F  0.18125257  0.15156165  0.76607692    -0.24000
F964        F  0.22233342  0.16082697  0.74107840    -0.18000
F965        F  0.10440144  0.03925615  0.75303210    -0.20500
F966        F  0.09834543  0.04619206  0.70326094    -0.21600
F967        F  0.06040883  0.03194119  0.73549383    -0.18800
F968        F  0.11293380  0.17528023  0.78465007    -0.18900
F969        F  0.11810334  0.18355199  0.73388194    -0.22800
F970        F  0.15662132  0.18922862  0.76263605    -0.24400
C971        C  0.22106402  0.72437333  0.15465023     0.03800
C972        C  0.24592967  0.74591604  0.17052412    -0.12300
C973        C  0.27143869  0.76524254  0.15446027     0.01300
C974        C  0.27223385  0.76320306  0.12239249    -0.10800
C975        C  0.24726923  0.74276093  0.10541288     0.03800
C976        C  0.22177679  0.72300418  0.12221981    -0.10300
H977        H  0.24552399  0.74745687  0.19543006     0.09400
H978        H  0.29278836  0.77787481  0.11117008     0.07000
H979        H  0.20231696  0.70631486  0.11056976     0.06800
C980        C  0.22666657  0.71878677  0.02096285     0.03800
C981        C  0.24900456  0.74292222  0.00535326    -0.12300
C982        C  0.27037586  0.76734240  0.02172544     0.01300
C983        C  0.26925620  0.76744387  0.05404601    -0.10800
C984        C  0.24799139  0.74264013  0.07058270     0.03800
C985        C  0.22724239  0.71806744  0.05330062    -0.10300
H986        H  0.25031550  0.74127251  0.47799448     0.09400
H987        H  0.28514378  0.78730527  0.06573806     0.07000
H988        H  0.21132775  0.69808855  0.06452278     0.06800
C989        C  0.23874412  0.96458784  0.15017235     0.03800
C990        C  0.21327398  0.96017302  0.16555973    -0.12300
C991        C  0.18882895  0.95685697  0.14874659     0.01300
C992        C  0.18987662  0.95759833  0.11654538    -0.10800
C993        C  0.21597652  0.96424987  0.10073015     0.03800
C994        C  0.24058287  0.96843244  0.11813775    -0.10300
H995        H  0.21265097  0.95966050  0.19052405     0.09400
H996        H  0.17013756  0.95346571  0.10423784     0.07000
H997        H  0.26148732  0.97506869  0.10714321     0.06800
C998        C  0.23872974  0.96525909  0.01686126     0.03800
C999        C  0.23774810  0.96268769  0.04907025    -0.12300
C1000       C  0.21745099  0.96710648  0.06639416     0.01300
C1001       C  0.19822289  0.97408180  0.05046028    -0.10800
C1002       C  0.19792570  0.97479245  0.01830904     0.03800
C1003       C  0.21858276  0.97103133  0.00151578    -0.10300
H1004       H  0.25282938  0.95707356  0.06017804     0.09400
H1005       H  0.18307005  0.97885460  0.06265016     0.07000
H1006       H  0.22116398  0.97028522  0.47668052     0.06800
C1007       C  0.48736323  0.74171954  0.15360275     0.03800
C1008       C  0.48558745  0.73970728  0.12133498    -0.12300
C1009       C  0.48894606  0.71807442  0.10531919     0.01300
C1010       C  0.49392550  0.69828846  0.12289515    -0.10800
C1011       C  0.49453492  0.69941479  0.15517798     0.03800
C1012       C  0.49165332  0.72137913  0.17045481    -0.10300
H1013       H  0.48084426  0.75483354  0.10915371     0.09400
H1014       H  0.49725546  0.68162055  0.11198922     0.07000
H1015       H  0.49282017  0.72263346  0.19539394     0.06800
C1016       C  0.48248731  0.73575526  0.02085077     0.03800
C1017       C  0.47645727  0.70924764  0.00646685    -0.12300
C1018       C  0.47666872  0.68672849  0.02343068     0.01300
C1019       C  0.47910891  0.68898146  0.05553576    -0.10800
C1020       C  0.48587485  0.71542452  0.07076635     0.03800
C1021       C  0.48946690  0.73928002  0.05250673    -0.10300
H1022       H  0.46924946  0.70680156  0.48090589     0.09400
H1023       H  0.47625305  0.66996044  0.06804688     0.07000
H1024       H  0.49829606  0.76081061  0.06260822     0.06800
O1025       O  0.01758627  0.91773191  0.37147705    -0.87500
C1026       C  0.07009006  0.56712283  0.29232241     1.12600
O1027       O  0.48813736  0.95097613  0.33572919    -1.35300
O1028       O  0.07869018  0.54875943  0.36818489    -0.88900
O1029       O  0.46450404  0.89000457  0.36759577    -0.89600
O1030       O  0.45584847  0.94935122  0.39970106    -0.78400
O1031       O  0.04814840  0.98325180  0.36392755    -1.00500
C1032       C  0.48130133  0.52950429  0.39475015     1.22600
O1033       O  0.45558609  0.97988512  0.33451469    -1.35400
Mn1034     Mn  0.48790472  0.98158601  0.30170583     1.82100
O1035       O  0.48359617  0.50774072  0.40253819    -0.77500
O1036       O  0.04930560  0.56813835  0.37461818    -0.86900
C1037       C  0.48823948  0.53563119  0.28269818     1.13700
C1038       C  0.07230283  0.56660930  0.38115408     1.08400
O1039       O  0.45802303  0.95085585  0.26935987    -0.78400
O1040       O  0.01785122  0.50978306  0.33670020    -1.32100
O1041       O  0.43175794  0.92376196  0.30536177    -0.97700
C1042       C  0.39737440  0.97683647  0.37638509     1.07100
Mn1043     Mn  0.01777162  0.55010091  0.33887307     1.48600
O1044       O  0.39519683  0.95258218  0.36804120    -0.86900
Mn1045     Mn  0.44988257  0.90878065  0.33406170     1.49600
O1046       O  0.01820883  0.91540897  0.30303122    -0.90700
C1047       C  0.04469348  0.98431631  0.39157541     1.20300
C1048       C  0.49109597  0.89695417  0.29199225     1.12400
Mn1049     Mn  0.48623030  0.98098303  0.36897085     1.81000
O1050       O  0.48581170  0.53648771  0.31030168    -0.95900
Mn1051     Mn  0.03087740  0.94883214  0.33630896     1.49300
C1052       C  0.48870134  0.89494864  0.38005233     1.08900
Mn1053     Mn  0.45090017  0.51534799  0.33611043     1.49900
C1054       C  0.39983880  0.97690220  0.28820663     1.11800
O1055       O  0.43006111  0.92191434  0.36314118    -1.01700
O1056       O  0.05088140  0.57097499  0.30612373    -0.91400
C1057       C  0.43361764  0.92605086  0.39088221     1.23100
O1058       O  0.48251423  0.53466503  0.36728108    -1.02100
O1059       O  0.07495795  0.54620789  0.29905381    -0.89500
O1060       O  0.42004533  0.49956175  0.29923400    -0.89100
O1061       O  0.46586479  0.89302345  0.29924091    -0.89100
Mn1062     Mn  0.06058369  0.51491313  0.33525857     1.47900
O1063       O  0.48945281  0.51379582  0.27232709    -0.77600
C1064       C  0.43550210  0.92773857  0.27768878     1.16200
O1065       O  0.02052973  0.98142461  0.40012798    -0.76300
O1066       O  0.02017567  0.97953568  0.26985281    -0.70900
Mn1067     Mn  0.41479609  0.93974605  0.33410329     1.51100
O1068       O  0.41619616  0.49753719  0.36789347    -0.88300
O1069       O  0.04695537  0.98057786  0.30656445    -0.95800
O1070       O  0.39607506  0.95310713  0.29986275    -0.90800
C1071       C  0.04256841  0.97867299  0.27901160     1.13900
C1072       C  0.49727186  0.64107797  0.47397570    -0.11200
C1073       C  0.47149945  0.61356826  0.47399150     0.11400
C1074       C  0.44719618  0.60919464  0.49217204    -0.03000
C1075       C  0.45045831  0.64028338  0.99334420    -0.05700
C1076       C  0.47667803  0.66187574  0.00720377    -0.16500
C1077       C  0.49901936  0.66512480  0.49015633     0.02400
C1078       C  0.47106423  0.59002416  0.45453439     0.12400
C1079       C  0.42087799  0.59366488  0.96189642     0.63000
H1080       H  0.43062086  0.64168583  0.99633725     0.12400
C1081       C  0.02989736  0.69437889  0.48976512     0.55100
H1082       H  0.01949677  0.64421090  0.45991266     0.08200
C1083       C  0.46248758  0.58668990  0.42317884    -0.05600
C1084       C  0.46477942  0.56554492  0.40529143    -0.06300
C1085       C  0.47688371  0.54877970  0.41709032    -0.15900
C1086       C  0.48615543  0.55280354  0.44847113    -0.01500
C1087       C  0.48262960  0.57313379  0.46674695    -0.09100
C1088       C  0.45255138  0.60656390  0.40823471     0.65200
H1089       H  0.45798634  0.56271478  0.38135945     0.10700
C1090       C  0.00053155  0.53449395  0.46161948     0.63600
H1091       H  0.99142961  0.57583115  0.48918112     0.08000
F1092       F  0.02708364  0.71540142  0.47341290    -0.19400
F1093       F  0.05323016  0.69236554  0.47742467    -0.15700
F1094       F  0.03682729  0.70339279  0.52015340    -0.19200
F1095       F  0.41419136  0.56669662  0.97393247    -0.22500
F1096       F  0.40755697  0.56646492  0.46907077    -0.24000
F1097       F  0.39771483  0.59851571  0.96838572    -0.18000
F1098       F  0.00978935  0.54323546  0.49169946    -0.20500
F1099       F  0.02468840  0.53886098  0.44474700    -0.21600
F1100       F  0.97976606  0.50500048  0.46199401    -0.18800
F1101       F  0.44462583  0.59923014  0.37762430    -0.18900
F1102       F  0.47531686  0.63538172  0.40938132    -0.22800
F1103       F  0.42847665  0.60454116  0.42354016    -0.24400
C1104       C  0.46568306  0.79629828  0.48915627    -0.11200
C1105       C  0.48182821  0.80322707  0.46166019     0.11400
C1106       C  0.00327420  0.78960665  0.45200936    -0.03000
C1107       C  0.00114395  0.76757088  0.47189051    -0.05700
C1108       C  0.47984372  0.75975803  0.50203012    -0.16500
C1109       C  0.46324843  0.77385448  0.50888359     0.02400
C1110       C  0.48265549  0.82664587  0.44150262     0.12400
C1111       C  0.02058535  0.79571819  0.42218128     0.63000
H1112       H  0.01293287  0.75606091  0.46647441     0.12400
C1113       C  0.45167567  0.77071158  0.04023850     0.55100
H1114       H  0.45454712  0.80842499  0.49486777     0.08200
C1115       C  0.45801045  0.82268204  0.42401105    -0.05600
C1116       C  0.46079459  0.84608915  0.40572241    -0.06300
C1117       C  0.48791968  0.87250333  0.40225987    -0.15900
C1118       C  0.51313535  0.87527839  0.41834206    -0.01500
C1119       C  0.50931529  0.85313103  0.43921291    -0.09100
C1120       C  0.42926773  0.79346979  0.42356602     0.65200
H1121       H  0.44167615  0.84327279  0.39305030     0.10700
C1122       C  0.04995047  0.90205571  0.41096430     0.63600
H1123       H  0.03450127  0.85760521  0.45111251     0.08000
F1124       F  0.42295268  0.77583402  0.53308292    -0.19400
F1125       F  0.47075440  0.78437800  0.06467250    -0.15700
F1126       F  0.43465929  0.74091848  0.04583277    -0.19200
F1127       F  0.04610054  0.82272665  0.42397325    -0.22500
F1128       F  0.00368777  0.79567735  0.39752921    -0.24000
F1129       F  0.02859056  0.77467106  0.41634114    -0.18000
F1130       F  0.55189026  0.90075102  0.38241747    -0.20500
F1131       F  0.07114608  0.89952677  0.42775638    -0.21600
F1132       F  0.05131141  0.92793835  0.41958311    -0.18800
F1133       F  0.40907594  0.79348711  0.40279943    -0.18900
F1134       F  0.41650444  0.78745498  0.45238158    -0.22800
F1135       F  0.43474798  0.77121082  0.41507966    -0.24400
C1136       C  0.49179152  0.60697349  0.25548957    -0.11200
C1137       C  0.49497871  0.60530911  0.22380970     0.11400
C1138       C  0.00349032  0.57973969  0.20929915    -0.03000
C1139       C  0.00002686  0.55743422  0.22985407    -0.05700
C1140       C  0.49111934  0.56048926  0.26322714    -0.16500
C1141       C  0.48957904  0.58511403  0.27567885     0.02400
C1142       C  0.49453269  0.62849529  0.20461671     0.12400
C1143       C  0.01448140  0.58054383  0.17677684     0.63000
H1144       H  0.00436449  0.54036099  0.22196928     0.12400
C1145       C  0.48514861  0.58892400  0.30980520     0.55100
H1146       H  0.49034752  0.62560754  0.26413187     0.08200
C1147       C  0.46761394  0.62709171  0.19613710    -0.05600
C1148       C  0.46867176  0.65074857  0.17986902    -0.06300
C1149       C  0.49556640  0.67584365  0.17285203    -0.15900
C1150       C  0.02605191  0.67597981  0.18244461    -0.01500
C1151       C  0.02451499  0.65163685  0.19787618    -0.09100
C1152       C  0.43793323  0.60090222  0.20458428     0.65200
H1153       H  0.44843921  0.65003371  0.17269527     0.10700
C1154       C  0.05499123  0.70478814  0.18106687     0.63600
H1155       H  0.04385850  0.65355666  0.20934723     0.08000
F1156       F  0.48407785  0.61435052  0.31564190    -0.19400
F1157       F  0.50835319  0.59082289  0.32697544    -0.15700
F1158       F  0.45875748  0.56560364  0.31972209    -0.19200
F1159       F  0.03983065  0.60715177  0.17184645    -0.22500
F1160       F  0.48240387  0.58159688  0.15975854    -0.24000
F1161       F  0.02106590  0.55837269  0.17172401    -0.18000
F1162       F  0.05207259  0.72677472  0.19537193    -0.20500
F1163       F  0.06282244  0.71233534  0.15063313    -0.21600
F1164       F  0.07761544  0.70293647  0.19567151    -0.18800
F1165       F  0.41460982  0.60369379  0.19336962    -0.18900
F1166       F  0.43524248  0.59827615  0.23627118    -0.22800
F1167       F  0.43554260  0.57547936  0.19236492    -0.24400
C1168       C  0.01506172  0.84451120  0.24704718    -0.11200
C1169       C  0.48871480  0.83622761  0.22337899     0.11400
C1170       C  0.47094262  0.84943633  0.22000387    -0.03000
C1171       C  0.47324133  0.87003436  0.24234824    -0.05700
C1172       C  0.49247598  0.87754798  0.26782866    -0.16500
C1173       C  0.01713303  0.86559023  0.26860271     0.02400
C1174       C  0.48680211  0.81307807  0.20210152     0.12400
C1175       C  0.44941467  0.84152286  0.19323397     0.63000
H1176       H  0.45951685  0.88005757  0.24042398     0.12400
C1177       C  0.04062060  0.87577229  0.29372252     0.55100
H1178       H  0.03007786  0.83593887  0.24846318     0.08200
C1179       C  0.01307076  0.81495192  0.18063681    -0.05600
C1180       C  0.01137003  0.79088262  0.16442181    -0.06300
C1181       C  0.48553929  0.76579829  0.16955237    -0.15900
C1182       C  0.46181727  0.76056147  0.18915698    -0.01500
C1183       C  0.46324970  0.78432544  0.20573158    -0.09100
C1184       C  0.03751303  0.84584543  0.17321408     0.65200
H1185       H  0.02788338  0.79434793  0.14736761     0.10700
C1186       C  0.43519096  0.73011166  0.19287962     0.63600
H1187       H  0.44633871  0.78044505  0.22244095     0.08000
F1188       F  0.06065249  0.90535206  0.29023327    -0.19400
F1189       F  0.05621164  0.86081069  0.29264921    -0.15700
F1190       F  0.02753548  0.87091791  0.32240059    -0.19200
F1191       F  0.42779242  0.81229701  0.19499258    -0.22500
F1192       F  0.46417719  0.84624380  0.16560940    -0.24000
F1193       F  0.43563962  0.85824036  0.19333093    -0.18000
F1194       F  0.44224090  0.71359805  0.21221851    -0.20500
F1195       F  0.42623426  0.71612191  0.16456206    -0.21600
F1196       F  0.41156481  0.73150259  0.20538606    -0.18800
F1197       F  0.05350142  0.84627070  0.14762237    -0.18900
F1198       F  0.05683172  0.85736288  0.19784347    -0.22800
F1199       F  0.02554186  0.86359720  0.16712793    -0.24400
C1200       C  0.34073928  0.99017159  0.41754280    -0.11200
C1201       C  0.33348429  0.97102963  0.44259195     0.11400
C1202       C  0.34698169  0.95350563  0.44575924    -0.03000
C1203       C  0.36747981  0.95596020  0.42346847    -0.05700
C1204       C  0.37581618  0.97604154  0.39906211    -0.16500
C1205       C  0.36188737  0.99324613  0.39569571     0.02400
C1206       C  0.30986809  0.96829642  0.46331160     0.12400
C1207       C  0.33365948  0.42232554  0.46963336     0.63000
H1208       H  0.37536207  0.43560055  0.42505792     0.12400
C1209       C  0.36790256  0.01352998  0.36836190     0.55100
H1210       H  0.32935275  0.00257497  0.41514266     0.08200
C1211       C  0.31143781  0.48031981  0.48576400    -0.05600
C1212       C  0.28768603  0.47825304  0.50273474    -0.06300
C1213       C  0.26291037  0.96080558  0.50098343    -0.15900
C1214       C  0.25688349  0.94179973  0.97777478    -0.01500
C1215       C  0.28144519  0.94439545  0.45866643    -0.09100
C1216       C  0.34192266  0.50551979  0.49390621     0.65200
H1217       H  0.29185709  0.49464975  0.52031419     0.10700
C1218       C  0.22687828  0.91459124  0.97335255     0.63600
H1219       H  0.27779782  0.92889145  0.44025174     0.08000
F1220       F  0.39633604  0.03708712  0.37018723    -0.19400
F1221       F  0.34880620  0.02465529  0.36749655    -0.15700
F1222       F  0.36432936  0.99826289  0.34113103    -0.19200
F1223       F  0.30903127  0.91130838  0.97162903    -0.22500
F1224       F  0.33719413  0.43609636  0.49783741    -0.24000
F1225       F  0.35063933  0.40887189  0.46981900    -0.18000
F1226       F  0.23009796  0.89042928  0.96717282    -0.20500
F1227       F  0.21268426  0.91887172  0.94864564    -0.21600
F1228       F  0.20948290  0.90817335  0.99931934    -0.18800
F1229       F  0.34675954  0.50517421  0.52524902    -0.18900
F1230       F  0.34321880  0.53178377  0.48661348    -0.22800
F1231       F  0.36448343  0.50423202  0.47880348    -0.24400
C1232       C  0.08980528  0.98591150  0.46232934    -0.11200
C1233       C  0.11607734  0.99177118  0.44794610     0.11400
C1234       C  0.11876534  0.49941728  0.42074418    -0.03000
C1235       C  0.09587230  0.49878914  0.40327877    -0.05700
C1236       C  0.06907195  0.98904113  0.41305786    -0.16500
C1237       C  0.06587030  0.98397687  0.44543267     0.02400
C1238       C  0.13775896  0.98796632  0.46623748     0.12400
C1239       C  0.14825870  0.50818022  0.40583109     0.63000
H1240       H  0.09980708  0.50521100  0.37930328     0.12400
C1241       C  0.03709587  0.97454112  0.46197895     0.55100
H1242       H  0.08777231  0.98132148  0.48681033     0.08200
C1243       C  0.15715235  0.50796340  0.48842567    -0.05600
C1244       C  0.18286526  0.50781929  0.99854048    -0.06300
C1245       C  0.17535928  0.97896984  0.00246916    -0.15900
C1246       C  0.15160012  0.95281817  0.48579161    -0.01500
C1247       C  0.13233243  0.95912249  0.46932755    -0.09100
C1248       C  0.16884907  0.54536025  0.98449122     0.65200
H1249       H  0.20198288  0.52551481  0.00999041     0.10700
C1250       C  0.14520921  0.92131475  0.48808011     0.63600
H1251       H  0.11293362  0.94156679  0.45826760     0.08000
F1252       F  0.03905838  0.97035872  0.49322753    -0.19400
F1253       F  0.01532181  0.94833621  0.44955576    -0.15700
F1254       F  0.02937055  0.99593620  0.45887231    -0.19200
F1255       F  0.15327278  0.48466415  0.40622663    -0.22500
F1256       F  0.17066315  0.53146711  0.42181635    -0.24000
F1257       F  0.14919966  0.51671481  0.37548001    -0.18000
F1258       F  0.11821560  0.90161978  0.47503499    -0.20500
F1259       F  0.14483609  0.91376508  0.51867086    -0.21600
F1260       F  0.16678577  0.91852935  0.47272233    -0.18800
F1261       F  0.19593779  0.56414521  0.97147992    -0.18900
F1262       F  0.16280436  0.05110377  0.02047323    -0.22800
F1263       F  0.14158469  0.54340644  0.47715027    -0.24400
C1264       C  0.36294733  0.98845172  0.21739033    -0.11200
C1265       C  0.33323654  0.96865558  0.22367376     0.11400
C1266       C  0.32566614  0.95019073  0.24972334    -0.03000
C1267       C  0.34829300  0.95340795  0.26973881    -0.05700
C1268       C  0.37803935  0.97441432  0.26455845    -0.16500
C1269       C  0.38562817  0.99174459  0.23751022     0.02400
C1270       C  0.31027102  0.96900187  0.20378795     0.12400
C1271       C  0.29327462  0.42943988  0.26196898     0.63000
H1272       H  0.34258068  0.44017352  0.29435839     0.12400
C1273       C  0.41730569  0.01373923  0.22988662     0.55100
H1274       H  0.36812333  0.00208746  0.19707685     0.08200
C1275       C  0.30090291  0.98982527  0.20843157    -0.05600
C1276       C  0.27760676  0.98778266  0.19026332    -0.06300
C1277       C  0.26374720  0.96581204  0.16770726    -0.15900
C1278       C  0.27313522  0.94490089  0.16311538    -0.01500
C1279       C  0.29665856  0.94718715  0.18110200    -0.09100
C1280       C  0.32026052  0.51594525  0.22937207     0.65200
H1281       H  0.27010670  0.00350763  0.19334354     0.10700
C1282       C  0.25785945  0.91967307  0.14016798     0.63600
H1283       H  0.30438901  0.93164703  0.17795593     0.08000
F1284       F  0.42715125  0.03777435  0.24927757    -0.19400
F1285       F  0.42013550  0.02331640  0.19976772    -0.15700
F1286       F  0.43479420  0.00105044  0.23342609    -0.19200
F1287       F  0.28240252  0.90702702  0.23310334    -0.22500
F1288       F  0.27857127  0.44520376  0.26364948    -0.24000
F1289       F  0.29067489  0.41618037  0.29023050    -0.18000
F1290       F  0.26493704  0.93013633  0.11041825    -0.20500
F1291       F  0.22757788  0.90584976  0.14384377    -0.21600
F1292       F  0.26637565  0.89877546  0.14419592    -0.18800
F1293       F  0.30997382  0.53565944  0.22784210    -0.18900
F1294       F  0.34428453  0.03356763  0.22324682    -0.22800
F1295       F  0.31682059  0.50578015  0.25929945    -0.24400
C1296       C  0.12007055  0.93468274  0.19687718    -0.11200
C1297       C  0.11758570  0.96004954  0.19426737     0.11400
C1298       C  0.13737407  0.98343189  0.17526488    -0.03000
C1299       C  0.16019018  0.98126792  0.16072693    -0.05700
C1300       C  0.16349204  0.95648130  0.16436125    -0.16500
C1301       C  0.14252854  0.93224835  0.18162497     0.02400
C1302       C  0.09696138  0.96329991  0.21511370     0.12400
C1303       C  0.14891319  0.51823363  0.19548371     0.63000
H1304       H  0.17604942  0.99919691  0.14667051     0.12400
C1305       C  0.14346894  0.90383568  0.18313488     0.55100
H1306       H  0.10456976  0.91704856  0.21147242     0.08200
C1307       C  0.06815029  0.95687654  0.20666534    -0.05600
C1308       C  0.05158344  0.96292456  0.22795285    -0.06300
C1309       C  0.06213752  0.97364812  0.25781794    -0.15900
C1310       C  0.09045872  0.97809126  0.26685935    -0.01500
C1311       C  0.10739610  0.97337366  0.24492227    -0.09100
C1312       C  0.06031255  0.44774243  0.17632640     0.65200
H1313       H  0.03245373  0.46065564  0.22187002     0.10700
C1314       C  0.10339921  0.98777080  0.29917746     0.63600
H1315       H  0.12926782  0.97740250  0.25085517     0.08000
F1316       F  0.11962433  0.88223306  0.19900025    -0.19400
F1317       F  0.16891789  0.90850989  0.19792512    -0.15700
F1318       F  0.14287027  0.89359095  0.15356412    -0.19200
F1319       F  0.13731537  0.02443045  0.19871891    -0.22500
F1320       F  0.12390996  0.51865160  0.18572487    -0.24000
F1321       F  0.17295160  0.54081278  0.18079753    -0.18000
F1322       F  0.13175719  0.99214801  0.30149613    -0.20500
F1323       F  0.08624120  0.96636510  0.32028679    -0.21600
F1324       F  0.10483133  0.01400504  0.30693530    -0.18800
F1325       F  0.03229480  0.44358025  0.17128969    -0.18900
F1326       F  0.07113088  0.93771267  0.15672189    -0.22800
F1327       F  0.07931088  0.46823751  0.15546138    -0.24400
C1328       C  0.31433045  0.83331047  0.46727546    -0.11200
C1329       C  0.34270226  0.83669405  0.46823330     0.11400
C1330       C  0.34837491  0.81827656  0.48743830    -0.03000
C1331       C  0.32471092  0.79555478  0.50356847    -0.05700
C1332       C  0.29514987  0.79204077  0.00514858    -0.16500
C1333       C  0.29116014  0.81180932  0.98625195     0.02400
C1334       C  0.36594529  0.85941651  0.44838609     0.12400
C1335       C  0.37935550  0.82295221  0.49109082     0.63000
H1336       H  0.32837808  0.78078784  0.51791364     0.12400
C1337       C  0.26178109  0.81109296  0.98465044     0.55100
H1338       H  0.31064838  0.84795568  0.45277923     0.08200
C1339       C  0.36896917  0.85366706  0.41716324    -0.05600
C1340       C  0.39172784  0.87592166  0.39982522    -0.06300
C1341       C  0.41136635  0.90385936  0.41236212    -0.15900
C1342       C  0.40791883  0.90964679  0.44372154    -0.01500
C1343       C  0.38503195  0.88719456  0.46107983    -0.09100
C1344       C  0.34823359  0.82411349  0.40217022     0.65200
H1345       H  0.39431023  0.87146750  0.37600205     0.10700
C1346       C  0.42792985  0.93913049  0.45903850     0.63600
H1347       H  0.38186236  0.89101351  0.48495130     0.08000
F1348       F  0.26373372  0.83438494  0.96781289    -0.19400
F1349       F  0.25270647  0.81284845  0.01411237    -0.15700
F1350       F  0.24072534  0.78533808  0.97080148    -0.19200
F1351       F  0.39751651  0.85024840  0.50415330    -0.22500
F1352       F  0.39053950  0.82163367  0.46270094    -0.24000
F1353       F  0.37990083  0.80192751  0.50986916    -0.18000
F1354       F  0.42744791  0.96143013  0.44262626    -0.20500
F1355       F  0.45641665  0.94398121  0.46026666    -0.21600
F1356       F  0.41935409  0.94029956  0.48892082    -0.18800
F1357       F  0.35455701  0.82351570  0.37128732    -0.18900
F1358       F  0.31941605  0.81827961  0.40411286    -0.22800
F1359       F  0.35060151  0.80204662  0.41689641    -0.24400
C1360       C  0.15346010  0.66703208  0.48392763    -0.11200
C1361       C  0.15933029  0.64730767  0.46785597     0.11400
C1362       C  0.18797777  0.65067956  0.46899596    -0.03000
C1363       C  0.20980520  0.67354793  0.48699169    -0.05700
C1364       C  0.20400219  0.69344873  0.50270691    -0.16500
C1365       C  0.17552530  0.69041672  0.50119957     0.02400
C1366       C  0.13617987  0.62589478  0.44676224     0.12400
C1367       C  0.19578696  0.63105442  0.45023456     0.63000
H1368       H  0.23191779  0.67671060  0.48819250     0.12400
C1369       C  0.16451942  0.70768290  0.02341722     0.55100
H1370       H  0.13160826  0.66443769  0.48200005     0.08200
C1371       C  0.11361238  0.59791469  0.45644359    -0.05600
C1372       C  0.09336883  0.57865028  0.43424641    -0.06300
C1373       C  0.09378479  0.58761174  0.40369149    -0.15900
C1374       C  0.11592099  0.61595474  0.39441913    -0.01500
C1375       C  0.13686807  0.63459708  0.41618112    -0.09100
C1376       C  0.11036093  0.58901434  0.49010725     0.65200
H1377       H  0.07702845  0.55655220  0.44062451     0.10700
C1378       C  0.11750126  0.62635706  0.36155886     0.63600
H1379       H  0.15406359  0.65633770  0.40955820     0.08000
F1380       F  0.16643203  0.70216794  0.05421910    -0.19400
F1381       F  0.14078587  0.70717670  0.50967374    -0.15700
F1382       F  0.18306683  0.73725413  0.01769033    -0.19200
F1383       F  0.19379717  0.63559277  0.41915804    -0.22500
F1384       F  0.17661458  0.60191631  0.45691792    -0.24000
F1385       F  0.22420560  0.63679843  0.45638673    -0.18000
F1386       F  0.09228001  0.62763866  0.35490135    -0.20500
F1387       F  0.11970921  0.60706282  0.34143912    -0.21600
F1388       F  0.14168254  0.65400843  0.35697698    -0.18800
F1389       F  0.09546373  0.56078908  0.98864997    -0.18900
F1390       F  0.10673933  0.60601259  0.00415770    -0.22800
F1391       F  0.14284696  0.59569371  0.99421421    -0.24400
C1392       C  0.34403390  0.80998066  0.19739159    -0.11200
C1393       C  0.34498301  0.83708116  0.20019756     0.11400
C1394       C  0.32222775  0.84085208  0.18707230    -0.03000
C1395       C  0.29856809  0.81672527  0.17224055    -0.05700
C1396       C  0.29696887  0.78926666  0.17072124    -0.16500
C1397       C  0.31995487  0.78565834  0.18331512     0.02400
C1398       C  0.36848092  0.86008922  0.21974811     0.12400
C1399       C  0.32270386  0.87000972  0.18925599     0.63000
H1400       H  0.28084907  0.81894618  0.16196488     0.12400
C1401       C  0.31868766  0.75615085  0.18229702     0.55100
H1402       H  0.36188528  0.80780808  0.20738421     0.08200
C1403       C  0.36634817  0.85864170  0.25218141    -0.05600
C1404       C  0.38856989  0.88143904  0.26961792    -0.06300
C1405       C  0.41335200  0.90535129  0.25600100    -0.15900
C1406       C  0.41578644  0.90633352  0.22326909    -0.01500
C1407       C  0.39303805  0.88352794  0.20573818    -0.09100
C1408       C  0.34098878  0.83275835  0.26846016     0.65200
H1409       H  0.38672999  0.88030640  0.29447352     0.10700
C1410       C  0.44198687  0.93085237  0.20665605     0.63600
H1411       H  0.39419497  0.88366511  0.18081194     0.08000
F1412       F  0.29378794  0.73541360  0.19750988    -0.19400
F1413       F  0.34311257  0.75730921  0.19630556    -0.15700
F1414       F  0.31757651  0.74737150  0.15200445    -0.19200
F1415       F  0.34742716  0.89164244  0.17461469    -0.22500
F1416       F  0.32331970  0.87783178  0.21983647    -0.24000
F1417       F  0.29809540  0.86863770  0.17547856    -0.18000
F1418       F  0.46776670  0.93184881  0.21617493    -0.20500
F1419       F  0.44359887  0.95744817  0.21288664    -0.21600
F1420       F  0.43975417  0.92684233  0.17498572    -0.18800
F1421       F  0.34146358  0.83735574  0.29995718    -0.18900
F1422       F  0.34298784  0.80773827  0.26373738    -0.22800
F1423       F  0.31420472  0.82809625  0.25716424    -0.24400
C1424       C  0.14428331  0.67632948  0.18936909    -0.11200
C1425       C  0.14952750  0.65768546  0.20835786     0.11400
C1426       C  0.17840417  0.66163643  0.21008524    -0.03000
C1427       C  0.20070658  0.68314968  0.19156810    -0.05700
C1428       C  0.19555450  0.70171778  0.17251465    -0.16500
C1429       C  0.16720482  0.69914785  0.17226330     0.02400
C1430       C  0.12509400  0.63483587  0.22738831     0.12400
C1431       C  0.18589431  0.64375754  0.23211820     0.63000
H1432       H  0.22268237  0.68592037  0.19204098     0.12400
C1433       C  0.16176125  0.72149855  0.15569555     0.55100
H1434       H  0.12219975  0.67322881  0.18850548     0.08200
C1435       C  0.11596036  0.64196169  0.25523089    -0.05600
C1436       C  0.09742807  0.61901350  0.27513045    -0.06300
C1437       C  0.08819581  0.58936189  0.26854522    -0.15900
C1438       C  0.09545497  0.58217523  0.23955180    -0.01500
C1439       C  0.11345035  0.60513067  0.21923918    -0.09100
C1440       C  0.12611513  0.67363705  0.26420420     0.65200
H1441       H  0.09057083  0.62422253  0.29658396     0.10700
C1442       C  0.08451079  0.55058059  0.23006783     0.63600
H1443       H  0.12006699  0.60013139  0.19744432     0.08000
F1444       F  0.13383417  0.71715161  0.16150705    -0.19400
F1445       F  0.16443040  0.71958089  0.12423338    -0.15700
F1446       F  0.18212021  0.74952010  0.16565724    -0.19200
F1447       F  0.17117112  0.61450167  0.22342928    -0.22500
F1448       F  0.17776930  0.64635088  0.26177531    -0.24000
F1449       F  0.21580771  0.65325376  0.23247013    -0.18000
F1450       F  0.09870227  0.53928751  0.24751170    -0.20500
F1451       F  0.09002118  0.54829072  0.19928933    -0.21600
F1452       F  0.05437391  0.53398814  0.23450654    -0.18800
F1453       F  0.11617427  0.67571243  0.29314817    -0.18900
F1454       F  0.11526265  0.68573743  0.24322129    -0.22800
F1455       F  0.15659943  0.68992721  0.26458567    -0.24400
C1456       C  0.22734942  0.72210333  0.65270812     0.03800
C1457       C  0.25204493  0.74412843  0.66835832    -0.12300
C1458       C  0.27650025  0.76490081  0.65181240     0.01300
C1459       C  0.27628255  0.76395565  0.61963157    -0.10800
C1460       C  0.25164287  0.74248519  0.60307107     0.03800
C1461       C  0.22746401  0.72125341  0.62036158    -0.10300
H1462       H  0.25229516  0.74502976  0.69333433     0.09400
H1463       H  0.29595075  0.78012894  0.60812159     0.07000
H1464       H  0.20839701  0.70355843  0.60929534     0.06800
C1465       C  0.22855751  0.71814398  0.51932918     0.03800
C1466       C  0.25044428  0.74187299  0.50296988    -0.12300
C1467       C  0.27224047  0.76644331  0.51875035     0.01300
C1468       C  0.27217345  0.76691309  0.55110211    -0.10800
C1469       C  0.25129668  0.74237683  0.56825016     0.03800
C1470       C  0.22981083  0.71787024  0.55149735    -0.10300
H1471       H  0.24964848  0.74271110  0.98038596     0.09400
H1472       H  0.28853882  0.78688205  0.56220726     0.07000
H1473       H  0.21362394  0.69807665  0.56275218     0.06800
C1474       C  0.23696534  0.96254308  0.65087848     0.03800
C1475       C  0.21148521  0.95824840  0.66598632    -0.12300
C1476       C  0.18687796  0.95428557  0.64904834     0.01300
C1477       C  0.18789650  0.95464996  0.61671902    -0.10800
C1478       C  0.21389083  0.96050371  0.60095002     0.03800
C1479       C  0.23851486  0.96496294  0.61868147    -0.10300
H1480       H  0.21100017  0.95842479  0.69096051     0.09400
H1481       H  0.16826853  0.95065519  0.60427430     0.07000
H1482       H  0.25934045  0.97089705  0.60787035     0.06800
C1483       C  0.23871694  0.96147142  0.51772651     0.03800
C1484       C  0.23644705  0.95833305  0.54987851    -0.12300
C1485       C  0.21561703  0.96267575  0.56639319     0.01300
C1486       C  0.19675449  0.96958738  0.54944618    -0.10800
C1487       C  0.19808063  0.97121679  0.51721736     0.03800
C1488       C  0.21943969  0.96782145  0.50152845    -0.10300
H1489       H  0.25107173  0.95246288  0.56157706     0.09400
H1490       H  0.18096206  0.97393325  0.56087424     0.07000
H1491       H  0.21913459  0.97283795  0.97660531     0.06800
C1492       C  0.48739498  0.73737666  0.65452337     0.03800
C1493       C  0.48424190  0.73667427  0.62228270    -0.12300
C1494       C  0.48870788  0.71688997  0.60405524     0.01300
C1495       C  0.49694252  0.69821912  0.61918261    -0.10800
C1496       C  0.49866201  0.69774918  0.65134766     0.03800
C1497       C  0.49417649  0.71756897  0.66898426    -0.10300
H1498       H  0.47778476  0.75133226  0.61183737     0.09400
H1499       H  0.50155100  0.68327970  0.60640943     0.07000
H1500       H  0.49570759  0.71740511  0.69390167     0.06800
C1501       C  0.47849551  0.73515441  0.52067287     0.03800
C1502       C  0.47303274  0.70912306  0.50560377    -0.12300
C1503       C  0.47374313  0.68651714  0.52186130     0.01300
C1504       C  0.47699985  0.68851925  0.55386781    -0.10800
C1505       C  0.48350067  0.71459135  0.56976933     0.03800
C1506       C  0.48521276  0.73822814  0.55245415    -0.10300
H1507       H  0.47263956  0.70640679  0.98180649     0.09400
H1508       H  0.47509101  0.66962760  0.56580274     0.07000
H1509       H  0.49279856  0.75934997  0.56325966     0.06800
O1510       O  0.01603507  0.91741673  0.87441436    -0.87500
C1511       C  0.07151753  0.56630059  0.78852936     1.12600
O1512       O  0.48736013  0.94872635  0.83606256    -1.35300
O1513       O  0.08020351  0.54961047  0.86508366    -0.88900
O1514       O  0.46382025  0.88812519  0.86826081    -0.89600
O1515       O  0.45550720  0.94687683  0.90035055    -0.78400
O1516       O  0.04686821  0.98362106  0.86664583    -1.00500
C1517       C  0.48345469  0.53185183  0.89099690     1.22600
O1518       O  0.45512586  0.97814038  0.83569283    -1.35400
Mn1519     Mn  0.48723611  0.97979976  0.80275526     1.82100
O1520       O  0.48589036  0.51039341  0.89955738    -0.77500
O1521       O  0.05113203  0.56948276  0.87055762    -0.86900
C1522       C  0.48747236  0.53239096  0.77797910     1.13700
C1523       C  0.07402993  0.56791947  0.87738979     1.08400
O1524       O  0.45739221  0.94968487  0.77062548    -0.78400
O1525       O  0.01895634  0.51062995  0.83430755    -1.32100
O1526       O  0.43082419  0.92197841  0.80625061    -0.97700
C1527       C  0.39711772  0.97589511  0.87749488     1.07100
Mn1528     Mn  0.01934540  0.55119298  0.83533229     1.48600
O1529       O  0.39469897  0.95145346  0.86935430    -0.86900
Mn1530     Mn  0.44882898  0.90664064  0.83475776     1.49600
O1531       O  0.01808306  0.91554965  0.80569808    -0.90700
C1532       C  0.04248656  0.98468846  0.89406170     1.20300
C1533       C  0.48951650  0.89391752  0.79229488     1.12400
Mn1534     Mn  0.48575925  0.97844956  0.86965201     1.81000
O1535       O  0.48541609  0.53482037  0.80550137    -0.95900
Mn1536     Mn  0.03013931  0.94899523  0.83912968     1.49300
C1537       C  0.48836614  0.89300146  0.87980066     1.08900
Mn1538     Mn  0.45140106  0.51546357  0.83281218     1.49900
C1539       C  0.39934193  0.97671308  0.78999262     1.11800
O1540       O  0.42891022  0.91965459  0.86406428    -1.01700
O1541       O  0.05255279  0.57099036  0.80184313    -0.91400
C1542       C  0.43300909  0.92371729  0.89182265     1.23100
O1543       O  0.48351952  0.53592737  0.86324563    -1.02100
O1544       O  0.07584850  0.54526541  0.79607949    -0.89500
O1545       O  0.41978428  0.49836137  0.79689963    -0.89100
O1546       O  0.46441677  0.89018550  0.79994876    -0.89100
Mn1547     Mn  0.06138509  0.51497118  0.83286382     1.47900
O1548       O  0.48848554  0.50999350  0.76918776    -0.77600
C1549       C  0.43519429  0.92624333  0.77868050     1.16200
O1550       O  0.01827370  0.98228519  0.90158343    -0.76300
O1551       O  0.02083212  0.97945881  0.77195785    -0.70900
Mn1552     Mn  0.41400256  0.93829344  0.83515135     1.51100
O1553       O  0.41767473  0.50000263  0.86543869    -0.88300
O1554       O  0.04718936  0.98096214  0.80942195    -0.95800
O1555       O  0.39518374  0.95249672  0.80113072    -0.90800
C1556       C  0.04313606  0.97875044  0.78179020     1.13900
C1557       C  0.50223391  0.63774345  0.98618207    -0.11200
C1558       C  0.47631719  0.61676353  0.97147608     0.11400
C1559       C  0.44973855  0.61732783  0.97573967    -0.03000
C1560       C  0.44826377  0.63371132  0.50688005    -0.05700
C1561       C  0.47349698  0.66166343  0.50530870    -0.16500
C1562       C  0.50299463  0.66053202  0.00394551     0.02400
C1563       C  0.47815814  0.59513974  0.95083334     0.12400
C1564       C  0.42098026  0.57868667  0.49694751     0.63000
H1565       H  0.42962552  0.63121655  0.52012900     0.12400
C1566       C  0.03022440  0.69402263  0.99245798     0.55100
H1567       H  0.02022021  0.64512454  0.96025234     0.08200
C1568       C  0.48864994  0.60245848  0.92034277    -0.05600
C1569       C  0.48990969  0.58104831  0.90197330    -0.06300
C1570       C  0.48175793  0.55284055  0.91315460    -0.15900
C1571       C  0.47211598  0.54593262  0.94427155    -0.01500
C1572       C  0.47044625  0.56737150  0.96248011    -0.09100
C1573       C  0.49905207  0.63298948  0.90745539     0.65200
H1574       H  0.49798820  0.58656044  0.87865998     0.10700
C1575       C  0.00281634  0.53632892  0.95867280     0.63600
H1576       H  0.99179540  0.57591967  0.98739666     0.08000
F1577       F  0.02735480  0.71620512  0.97877359    -0.19400
F1578       F  0.05341063  0.69293408  0.97839740    -0.15700
F1579       F  0.03736033  0.70072265  0.02328519    -0.19200
F1580       F  0.43050019  0.56095708  0.51036285    -0.22500
F1581       F  0.42326888  0.59282577  0.93022177    -0.24000
F1582       F  0.40012506  0.57922793  0.51612754    -0.18000
F1583       F  0.01234506  0.54509669  0.98868351    -0.20500
F1584       F  0.02697034  0.54091867  0.94154782    -0.21600
F1585       F  0.98218999  0.50675797  0.95909039    -0.18800
F1586       F  0.50629949  0.63478660  0.87655665    -0.18900
F1587       F  0.52385352  0.65336538  0.92341048    -0.22800
F1588       F  0.47711333  0.64026118  0.91034249    -0.24400
C1589       C  0.47050053  0.79783275  0.99036605    -0.11200
C1590       C  0.48370796  0.80256305  0.96134530     0.11400
C1591       C  0.00024769  0.78875183  0.95588807    -0.03000
C1592       C  0.99814712  0.76635740  0.97525593    -0.05700
C1593       C  0.48330396  0.76002702  0.00192874    -0.16500
C1594       C  0.46905319  0.77616547  0.01055103     0.02400
C1595       C  0.48397534  0.82568283  0.94134291     0.12400
C1596       C  0.01759461  0.79529121  0.92606083     0.63000
H1597       H  0.00973695  0.75478689  0.96921720     0.12400
C1598       C  0.44186058  0.76456828  0.53573014     0.55100
H1599       H  0.46109079  0.81132666  0.99707973     0.08200
C1600       C  0.45846992  0.82216320  0.92602820    -0.05600
C1601       C  0.46079593  0.84541124  0.90782316    -0.06300
C1602       C  0.48816429  0.87097856  0.90215547    -0.15900
C1603       C  0.51407945  0.87315604  0.91608536    -0.01500
C1604       C  0.51092087  0.85136386  0.93701645    -0.09100
C1605       C  0.42929400  0.79346114  0.92766009     0.65200
H1606       H  0.44108599  0.84303786  0.89685699     0.10700
C1607       C  0.04765537  0.90073533  0.91448728     0.63600
H1608       H  0.03129637  0.85724832  0.95614915     0.08000
F1609       F  0.43272746  0.78200299  0.03865625    -0.19400
F1610       F  0.45715308  0.77470577  0.56318643    -0.15700
F1611       F  0.42471198  0.73426493  0.53658641    -0.19200
F1612       F  0.04236218  0.82288008  0.92755823    -0.22500
F1613       F  0.00015255  0.79412304  0.90143197    -0.24000
F1614       F  0.02694432  0.77521853  0.92048678    -0.18000
F1615       F  0.55046345  0.89655932  0.87730577    -0.20500
F1616       F  0.06852881  0.89799004  0.93168409    -0.21600
F1617       F  0.04999731  0.92729792  0.92200274    -0.18800
F1618       F  0.40792959  0.79378738  0.90893781    -0.18900
F1619       F  0.41886298  0.78830220  0.95749883    -0.22800
F1620       F  0.43324987  0.77049448  0.91808052    -0.24400
C1621       C  0.49114199  0.60217043  0.74531021    -0.11200
C1622       C  0.49848201  0.60110449  0.71467339     0.11400
C1623       C  0.99854627  0.57832490  0.70503861    -0.03000
C1624       C  0.99705311  0.55676472  0.72572718    -0.05700
C1625       C  0.49102344  0.55651477  0.75673713    -0.16500
C1626       C  0.48718529  0.58050979  0.76669541     0.02400
C1627       C  0.49936225  0.62415776  0.69407458     0.12400
C1628       C  0.00367869  0.57628954  0.67093913     0.63000
H1629       H  0.99944826  0.53870530  0.71704195     0.12400
C1630       C  0.47862238  0.58388142  0.79940365     0.55100
H1631       H  0.48795578  0.62027801  0.75212810     0.08200
C1632       C  0.47295162  0.62169462  0.68198522    -0.05600
C1633       C  0.47407649  0.64620918  0.66770976    -0.06300
C1634       C  0.50030536  0.67321918  0.66620147    -0.15900
C1635       C  0.02189496  0.67304206  0.67273400    -0.01500
C1636       C  0.02101329  0.64900320  0.68824338    -0.09100
C1637       C  0.44345666  0.59358599  0.68501730     0.65200
H1638       H  0.45416913  0.64480395  0.65830528     0.10700
C1639       C  0.05113912  0.69893881  0.66297041     0.63600
H1640       H  0.04134551  0.64937921  0.69420960     0.08000
F1641       F  0.47475767  0.60803547  0.80259022    -0.19400
F1642       F  0.50065815  0.58775674  0.81978217    -0.15700
F1643       F  0.45228332  0.55941973  0.80737680    -0.19200
F1644       F  0.02883450  0.60143946  0.66164781    -0.22500
F1645       F  0.49485085  0.57706648  0.65087791    -0.24000
F1646       F  0.00731635  0.55246004  0.66433725    -0.18000
F1647       F  0.05494244  0.72435080  0.67691070    -0.20500
F1648       F  0.05147912  0.70214118  0.63130784    -0.21600
F1649       F  0.07471664  0.69524595  0.67113873    -0.18800
F1650       F  0.42088330  0.59560309  0.67052046    -0.18900
F1651       F  0.43617426  0.58752940  0.71576246    -0.22800
F1652       F  0.44508781  0.57054360  0.67170523    -0.24400
C1653       C  0.01412711  0.84483652  0.74750257    -0.11200
C1654       C  0.48606775  0.82838749  0.72927191     0.11400
C1655       C  0.47028712  0.84323824  0.72265695    -0.03000
C1656       C  0.47225202  0.86482626  0.74356260    -0.05700
C1657       C  0.49032683  0.87270235  0.77000867    -0.16500
C1658       C  0.01684251  0.86600159  0.76941800     0.02400
C1659       C  0.48579005  0.80562373  0.70840748     0.12400
C1660       C  0.45175442  0.83648420  0.69353615     0.63000
H1661       H  0.45968915  0.87581116  0.73937635     0.12400
C1662       C  0.04120888  0.87646157  0.79356827     0.55100
H1663       H  0.02889605  0.83594348  0.74837050     0.08200
C1664       C  0.01056254  0.81655286  0.67898214    -0.05600
C1665       C  0.00830632  0.79270873  0.66167632    -0.06300
C1666       C  0.48543545  0.76019731  0.67289249    -0.15900
C1667       C  0.46049892  0.75418004  0.69085625    -0.01500
C1668       C  0.46123371  0.77707665  0.70868021    -0.09100
C1669       C  0.03435238  0.84767209  0.67130211     0.65200
H1670       H  0.02429653  0.79652281  0.64387403     0.10700
C1671       C  0.43336121  0.72378060  0.69106555     0.63600
H1672       H  0.44284486  0.77275038  0.72344491     0.08000
F1673       F  0.06073896  0.90612328  0.78976955    -0.19400
F1674       F  0.05714629  0.86191253  0.79123276    -0.15700
F1675       F  0.02920577  0.87149957  0.82279490    -0.19200
F1676       F  0.42880950  0.80776716  0.69407608    -0.22500
F1677       F  0.46904004  0.84035688  0.66797300    -0.24000
F1678       F  0.43976875  0.85468465  0.69052977    -0.18000
F1679       F  0.44005048  0.70413418  0.70501150    -0.20500
F1680       F  0.42392183  0.71455984  0.66115793    -0.21600
F1681       F  0.41028463  0.72347794  0.70697551    -0.18800
F1682       F  0.05086560  0.84842123  0.64607289    -0.18900
F1683       F  0.05338567  0.86015294  0.69602316    -0.22800
F1684       F  0.02143206  0.86441510  0.66446765    -0.24400
C1685       C  0.33964068  0.98979521  0.91589082    -0.11200
C1686       C  0.33188356  0.97104031  0.94127217     0.11400
C1687       C  0.34552595  0.95386390  0.94589218    -0.03000
C1688       C  0.36651913  0.95587649  0.92436673    -0.05700
C1689       C  0.37531795  0.97559580  0.89955467    -0.16500
C1690       C  0.36175009  0.99309369  0.89526528     0.02400
C1691       C  0.30864040  0.96927417  0.96207934     0.12400
C1692       C  0.33816454  0.42965839  0.97027598     0.63000
H1693       H  0.38105262  0.44384907  0.92719184     0.12400
C1694       C  0.36978047  0.01465239  0.86875874     0.55100
H1695       H  0.32829145  0.00213757  0.91262018     0.08200
C1696       C  0.31488853  0.48657723  0.98425702    -0.05600
C1697       C  0.29167165  0.48379459  0.00286572    -0.06300
C1698       C  0.26238760  0.96430379  0.99934685    -0.15900
C1699       C  0.25785314  0.93988200  0.47755735    -0.01500
C1700       C  0.28009149  0.94513312  0.95888016    -0.09100
C1701       C  0.34579087  0.51243974  0.98891738     0.65200
H1702       H  0.29578319  0.50029775  0.02023994     0.10700
C1703       C  0.22817409  0.91279009  0.47131822     0.63600
H1704       H  0.27599646  0.92867422  0.94142319     0.08000
F1705       F  0.39833683  0.03757260  0.87264012    -0.19400
F1706       F  0.35144644  0.02665302  0.86726674    -0.15700
F1707       F  0.36738145  0.00054960  0.84101129    -0.19200
F1708       F  0.33121932  0.90430724  0.45981931    -0.22500
F1709       F  0.33898710  0.44274266  0.99823496    -0.24000
F1710       F  0.35710080  0.41843331  0.97219430    -0.18000
F1711       F  0.23184394  0.88861260  0.46734793    -0.20500
F1712       F  0.21624590  0.91695836  0.44458403    -0.21600
F1713       F  0.20853874  0.90650886  0.49522478    -0.18800
F1714       F  0.34729525  0.52985354  0.01368297    -0.18900
F1715       F  0.35432032  0.52969963  0.96280696    -0.22800
F1716       F  0.36542044  0.50249874  0.99437384    -0.24400
C1717       C  0.08434476  0.98451472  0.96673237    -0.11200
C1718       C  0.11175431  0.99219265  0.95385802     0.11400
C1719       C  0.12142275  0.50259843  0.91732316    -0.03000
C1720       C  0.09776003  0.50092945  0.90028081    -0.05700
C1721       C  0.06592574  0.98908772  0.91661540    -0.16500
C1722       C  0.06091352  0.98217415  0.94852603     0.02400
C1723       C  0.13324877  0.98878896  0.97288488     0.12400
C1724       C  0.15076233  0.51202077  0.90164302     0.63000
H1725       H  0.10104115  0.50699778  0.87619443     0.12400
C1726       C  0.03075653  0.97024013  0.96298985     0.55100
H1727       H  0.08108678  0.97882853  0.99094370     0.08200
C1728       C  0.16310496  0.51405482  0.98271449    -0.05600
C1729       C  0.17664813  0.50108800  0.50371214    -0.06300
C1730       C  0.17686179  0.97631823  0.49973487    -0.15900
C1731       C  0.14998198  0.95497216  0.98928957    -0.01500
C1732       C  0.12934502  0.96040957  0.97448209    -0.09100
C1733       C  0.16189907  0.53871881  0.49287731     0.65200
H1734       H  0.19474523  0.51795007  0.51715575     0.10700
C1735       C  0.14460423  0.92378784  0.99114466     0.63600
H1736       H  0.11019147  0.94260290  0.96331237     0.08000
F1737       F  0.03069976  0.96328419  0.99377214    -0.19400
F1738       F  0.01059389  0.94492222  0.94765059    -0.15700
F1739       F  0.02207988  0.99107556  0.96127143    -0.19200
F1740       F  0.15814762  0.49021258  0.90443106    -0.22500
F1741       F  0.17259815  0.53752337  0.91514578    -0.24000
F1742       F  0.14983940  0.51740794  0.87053281    -0.18000
F1743       F  0.11756367  0.90356932  0.97858618    -0.20500
F1744       F  0.14508800  0.91633987  0.02162389    -0.21600
F1745       F  0.16625211  0.92169274  0.97513046    -0.18800
F1746       F  0.18982340  0.55899287  0.48281043    -0.18900
F1747       F  0.17101202  0.05327766  0.50957047    -0.22800
F1748       F  0.14756620  0.54911982  0.96959074    -0.24400
C1749       C  0.36197825  0.99056911  0.72082589    -0.11200
C1750       C  0.33215406  0.97298515  0.72853464     0.11400
C1751       C  0.32448122  0.95582997  0.75567087    -0.03000
C1752       C  0.34719428  0.95724666  0.77448675    -0.05700
C1753       C  0.37718378  0.97559535  0.76742148    -0.16500
C1754       C  0.38473892  0.99253735  0.74005649     0.02400
C1755       C  0.30925647  0.97208639  0.70727496     0.12400
C1756       C  0.29369435  0.42004323  0.75662860     0.63000
H1757       H  0.34313703  0.43408475  0.79006537     0.12400
C1758       C  0.41654162  0.01292180  0.73124930     0.55100
H1759       H  0.36728754  0.00321227  0.69976617     0.08200
C1760       C  0.30121066  0.99423104  0.70717936    -0.05600
C1761       C  0.27787033  0.99059325  0.68787254    -0.06300
C1762       C  0.26248308  0.96565313  0.66904030    -0.15900
C1763       C  0.27071375  0.94366554  0.66894135    -0.01500
C1764       C  0.29454288  0.94769227  0.68760230    -0.09100
C1765       C  0.31781729  0.51129242  0.72545967     0.65200
H1766       H  0.27112534  0.00705854  0.68754784     0.10700
C1767       C  0.25346892  0.91539212  0.65050351     0.63600
H1768       H  0.30135311  0.93127268  0.68779809     0.08000
F1769       F  0.42824164  0.03728543  0.75033131    -0.19400
F1770       F  0.41894834  0.02234285  0.70109643    -0.15700
F1771       F  0.43272229  0.99872395  0.73410639    -0.19200
F1772       F  0.27794282  0.91426639  0.74330341    -0.22500
F1773       F  0.27564514  0.43230877  0.75821472    -0.24000
F1774       F  0.29167142  0.40617858  0.78437552    -0.18000
F1775       F  0.25618190  0.92139380  0.61931538    -0.20500
F1776       F  0.22398040  0.90180486  0.65850111    -0.21600
F1777       F  0.26348587  0.89585284  0.65606899    -0.18800
F1778       F  0.30266683  0.52655753  0.72865273    -0.18900
F1779       F  0.34629714  0.03736816  0.71967195    -0.22800
F1780       F  0.32228022  0.50364988  0.75465436    -0.24400
C1781       C  0.11905527  0.93130777  0.69919064    -0.11200
C1782       C  0.11699791  0.95699046  0.69838967     0.11400
C1783       C  0.13689122  0.98100344  0.68010496    -0.03000
C1784       C  0.15868403  0.97868153  0.66347123    -0.05700
C1785       C  0.16147175  0.95347520  0.66510862    -0.16500
C1786       C  0.14102264  0.92905828  0.68259932     0.02400
C1787       C  0.09627029  0.95967797  0.71970537     0.12400
C1788       C  0.15200489  0.51793245  0.69233448     0.63000
H1789       H  0.17449324  0.99701027  0.64981449     0.12400
C1790       C  0.14237363  0.90083720  0.68351118     0.55100
H1791       H  0.10375811  0.91334830  0.71357826     0.08200
C1792       C  0.06759597  0.95361740  0.71115604    -0.05600
C1793       C  0.05168340  0.96118426  0.73171848    -0.06300
C1794       C  0.06251175  0.97278531  0.76123915    -0.15900
C1795       C  0.09050722  0.97660768  0.77066688    -0.01500
C1796       C  0.10692467  0.97043055  0.74931108    -0.09100
C1797       C  0.06334823  0.45248995  0.67319706     0.65200
H1798       H  0.03426908  0.46345183  0.71911451     0.10700
C1799       C  0.10357984  0.98707602  0.80279905     0.63600
H1800       H  0.12866362  0.97418376  0.75540843     0.08000
F1801       F  0.11877339  0.87888356  0.69936377    -0.19400
F1802       F  0.16805490  0.90576885  0.69799521    -0.15700
F1803       F  0.14176240  0.89092587  0.65378149    -0.19200
F1804       F  0.14071261  0.02170613  0.70819022    -0.22500
F1805       F  0.12776121  0.52001745  0.68318181    -0.24000
F1806       F  0.17635886  0.53920946  0.67678244    -0.18000
F1807       F  0.13175908  0.99101465  0.80543517    -0.20500
F1808       F  0.08621480  0.96643053  0.82445805    -0.21600
F1809       F  0.10547587  0.01372195  0.80952350    -0.18800
F1810       F  0.03605700  0.44985342  0.66736203    -0.18900
F1811       F  0.06852931  0.93007653  0.66341311    -0.22800
F1812       F  0.08365684  0.47354893  0.65365544    -0.24400
C1813       C  0.31538174  0.83305224  0.96939870    -0.11200
C1814       C  0.34328370  0.83539407  0.97140404     0.11400
C1815       C  0.34789578  0.81742340  0.99239391    -0.03000
C1816       C  0.32350499  0.79560406  0.00858386    -0.05700
C1817       C  0.29601323  0.79132685  0.50153401    -0.16500
C1818       C  0.29077924  0.81098055  0.48388840     0.02400
C1819       C  0.36721895  0.85717844  0.95133853     0.12400
C1820       C  0.37845377  0.82152032  0.99777980     0.63000
H1821       H  0.32630535  0.78092440  0.02396088     0.12400
C1822       C  0.26063447  0.80866396  0.48298650     0.55100
H1823       H  0.31270098  0.84788781  0.95414246     0.08200
C1824       C  0.36993534  0.85091600  0.92017923    -0.05600
C1825       C  0.39214973  0.87307644  0.90211211    -0.06300
C1826       C  0.41156952  0.90139066  0.91392353    -0.15900
C1827       C  0.40886953  0.90738293  0.94546062    -0.01500
C1828       C  0.38659804  0.88505878  0.96347096    -0.09100
C1829       C  0.34923300  0.82099673  0.90598504     0.65200
H1830       H  0.39429513  0.86837279  0.87824868     0.10700
C1831       C  0.42887054  0.93705197  0.96031318     0.63600
H1832       H  0.38383303  0.88922060  0.98735002     0.08000
F1833       F  0.26144353  0.83232846  0.46800860    -0.19400
F1834       F  0.25079340  0.80800237  0.51270224    -0.15700
F1835       F  0.24073279  0.78333304  0.46757565    -0.19200
F1836       F  0.39693746  0.84933730  0.00952362    -0.22500
F1837       F  0.38989095  0.81829861  0.97034913    -0.24000
F1838       F  0.37800510  0.80129696  0.01854066    -0.18000
F1839       F  0.42750450  0.95892687  0.94398908    -0.20500
F1840       F  0.45748226  0.94227111  0.96070411    -0.21600
F1841       F  0.42098490  0.93838966  0.99046958    -0.18800
F1842       F  0.35604824  0.81931096  0.87549588    -0.18900
F1843       F  0.32050933  0.81556999  0.90693620    -0.22800
F1844       F  0.35107488  0.79929245  0.92214972    -0.24400
C1845       C  0.15200448  0.66746140  0.98392196    -0.11200
C1846       C  0.15939263  0.65105270  0.96401574     0.11400
C1847       C  0.18881626  0.65653828  0.96318612    -0.03000
C1848       C  0.20990356  0.67804080  0.98307650    -0.05700
C1849       C  0.20255830  0.69446840  0.00306400    -0.16500
C1850       C  0.17319587  0.68935223  0.00344843     0.02400
C1851       C  0.13626416  0.62939781  0.94290924     0.12400
C1852       C  0.19800850  0.64029234  0.94076105     0.63000
H1853       H  0.23258613  0.68278515  0.98266252     0.12400
C1854       C  0.16884969  0.71240627  0.51682549     0.55100
H1855       H  0.12949104  0.66323281  0.98363109     0.08200
C1856       C  0.11615421  0.60022477  0.95200300    -0.05600
C1857       C  0.09634611  0.58038715  0.92987594    -0.06300
C1858       C  0.09537656  0.58941144  0.89969308    -0.15900
C1859       C  0.11529532  0.61869204  0.89082493    -0.01500
C1860       C  0.13524212  0.63834465  0.91277174    -0.09100
C1861       C  0.11527307  0.59046243  0.98506370     0.65200
H1862       H  0.08133584  0.55776368  0.93601945     0.10700
C1863       C  0.11623451  0.62866059  0.85789891     0.63600
H1864       H  0.15074305  0.66081185  0.90643741     0.08000
F1865       F  0.17079284  0.71068570  0.54846032    -0.19400
F1866       F  0.13586116  0.70130972  0.01756604    -0.15700
F1867       F  0.18883751  0.74058725  0.50737228    -0.19200
F1868       F  0.19494332  0.64742235  0.91083624    -0.22500
F1869       F  0.18054215  0.61029490  0.94458737    -0.24000
F1870       F  0.22712565  0.64754136  0.94511751    -0.18000
F1871       F  0.08926666  0.62580444  0.85001077    -0.20500
F1872       F  0.12240577  0.61151870  0.83840954    -0.21600
F1873       F  0.13773556  0.65773625  0.85380411    -0.18800
F1874       F  0.08782797  0.56038463  0.49433046    -0.18900
F1875       F  0.10394152  0.60737359  0.50724631    -0.22800
F1876       F  0.13622976  0.59123373  0.50116823    -0.24400
C1877       C  0.35103883  0.81133804  0.69040390    -0.11200
C1878       C  0.34902995  0.83606012  0.69884229     0.11400
C1879       C  0.32420678  0.83840980  0.69003194    -0.03000
C1880       C  0.30062301  0.81432221  0.67516382    -0.05700
C1881       C  0.30201761  0.78897947  0.66789825    -0.16500
C1882       C  0.32792872  0.78772676  0.67445265     0.02400
C1883       C  0.37211350  0.85817825  0.71909417     0.12400
C1884       C  0.32307762  0.86645296  0.69583431     0.63000
H1885       H  0.28099263  0.81515224  0.66874498     0.12400
C1886       C  0.33104555  0.76163551  0.66460488     0.55100
H1887       H  0.37067065  0.81054859  0.69693136     0.08200
C1888       C  0.36901381  0.85592260  0.75138807    -0.05600
C1889       C  0.38988080  0.87902523  0.76948825    -0.06300
C1890       C  0.41462265  0.90347878  0.75659135    -0.15900
C1891       C  0.41896338  0.90437412  0.72413631    -0.01500
C1892       C  0.39703093  0.88175965  0.70584891    -0.09100
C1893       C  0.34408399  0.82891428  0.76670500     0.65200
H1894       H  0.38695877  0.87778862  0.79422833     0.10700
C1895       C  0.44646738  0.92839217  0.70869176     0.63600
H1896       H  0.39901822  0.88224713  0.68098187     0.08000
F1897       F  0.30848609  0.73612657  0.67708516    -0.19400
F1898       F  0.35765863  0.76447525  0.67421073    -0.15700
F1899       F  0.32973263  0.75929579  0.63280894    -0.19200
F1900       F  0.34589127  0.88944515  0.68023553    -0.22500
F1901       F  0.32596104  0.87317075  0.72694406    -0.24000
F1902       F  0.29677142  0.86395325  0.68568570    -0.18000
F1903       F  0.47132109  0.92943229  0.72134267    -0.20500
F1904       F  0.44795563  0.95526391  0.71260201    -0.21600
F1905       F  0.44660284  0.92345651  0.67733382    -0.18800
F1906       F  0.34524963  0.83141020  0.79854173    -0.18900
F1907       F  0.34613653  0.80441234  0.75897581    -0.22800
F1908       F  0.31699590  0.82467335  0.75707466    -0.24400
C1909       C  0.15076489  0.67178504  0.68625294    -0.11200
C1910       C  0.15655685  0.65365498  0.70531819     0.11400
C1911       C  0.18540824  0.65755914  0.70642773    -0.03000
C1912       C  0.20779016  0.68019672  0.68891856    -0.05700
C1913       C  0.20218803  0.69874239  0.67027569    -0.16500
C1914       C  0.17321815  0.69468744  0.66898059     0.02400
C1915       C  0.13238343  0.63167972  0.72510662     0.12400
C1916       C  0.19249281  0.63788178  0.72604956     0.63000
H1917       H  0.22999024  0.68354706  0.68946557     0.12400
C1918       C  0.16617160  0.71510641  0.65061759     0.55100
H1919       H  0.12845622  0.66812217  0.68548502     0.08200
C1920       C  0.12445906  0.63996666  0.75299389    -0.05600
C1921       C  0.10316088  0.61788177  0.77188941    -0.06300
C1922       C  0.09073136  0.58785799  0.76475560    -0.15900
C1923       C  0.09749464  0.57973954  0.73596381    -0.01500
C1924       C  0.11794411  0.60194434  0.71637749    -0.09100
C1925       C  0.13919376  0.67193308  0.76326799     0.65200
H1926       H  0.09686634  0.62395753  0.79314230     0.10700
C1927       C  0.08341684  0.54791589  0.72593877     0.63600
H1928       H  0.12377585  0.59617909  0.69454774     0.08000
F1929       F  0.13813602  0.71025649  0.65687601    -0.19400
F1930       F  0.16751530  0.71072375  0.61940102    -0.15700
F1931       F  0.18611951  0.74405242  0.65798731    -0.19200
F1932       F  0.17671037  0.60925001  0.71537710    -0.22500
F1933       F  0.18510436  0.63885723  0.75643856    -0.24000
F1934       F  0.22218201  0.64643665  0.72512194    -0.18000
F1935       F  0.09463833  0.53397464  0.74374555    -0.20500
F1936       F  0.08919758  0.54518636  0.69534952    -0.21600
F1937       F  0.05312262  0.53424522  0.72939513    -0.18800
F1938       F  0.12914923  0.67504557  0.79173476    -0.18900
F1939       F  0.13335870  0.68813689  0.74222046    -0.22800
F1940       F  0.16937781  0.68338624  0.76549850    -0.24400
C1941       C  0.72264169  0.22371967  0.15211383     0.03800
C1942       C  0.74744788  0.24509107  0.16811639    -0.12300
C1943       C  0.77301328  0.26452902  0.15231164     0.01300
C1944       C  0.77377454  0.26339685  0.12013163    -0.10800
C1945       C  0.74888782  0.24302298  0.10295619     0.03800
C1946       C  0.72351818  0.22274336  0.11969589    -0.10300
H1947       H  0.74713956  0.24612990  0.19307699     0.09400
H1948       H  0.79427183  0.27842122  0.10904788     0.07000
H1949       H  0.70442476  0.20565230  0.10809665     0.06800
C1950       C  0.72813313  0.21897026  0.01864097     0.03800
C1951       C  0.75070686  0.24260292  0.00275011    -0.12300
C1952       C  0.77228757  0.26711006  0.01888559     0.01300
C1953       C  0.77132021  0.26743541  0.05130707    -0.10800
C1954       C  0.74966512  0.24297635  0.06806405     0.03800
C1955       C  0.72847373  0.21862825  0.05089425    -0.10300
H1956       H  0.74824256  0.24319728  0.48003810     0.09400
H1957       H  0.78758537  0.28716829  0.06288771     0.07000
H1958       H  0.71185348  0.19897515  0.06198373     0.06800
C1959       C  0.74081376  0.46445414  0.15099175     0.03800
C1960       C  0.71623669  0.46237922  0.16650409    -0.12300
C1961       C  0.69295715  0.46205171  0.14998612     0.01300
C1962       C  0.69406202  0.46308165  0.11773832    -0.10800
C1963       C  0.71919514  0.46679045  0.10156511     0.03800
C1964       C  0.74274201  0.46813369  0.11885661    -0.10300
H1965       H  0.71535321  0.46129014  0.19145615     0.09400
H1966       H  0.67501064  0.46109619  0.10570980     0.07000
H1967       H  0.76307851  0.47290361  0.10770002     0.06800
C1968       C  0.73984520  0.46522839  0.01661421     0.03800
C1969       C  0.73956153  0.46324835  0.04906663    -0.12300
C1970       C  0.72079204  0.46965374  0.06700341     0.01300
C1971       C  0.70288689  0.47854177  0.05142318    -0.10800
C1972       C  0.70129933  0.47820059  0.01931807     0.03800
C1973       C  0.72025929  0.47231128  0.00190329    -0.10300
H1974       H  0.75397952  0.45660528  0.05987603     0.09400
H1975       H  0.68937651  0.48531292  0.06387256     0.07000
H1976       H  0.72194450  0.47173040  0.47416518     0.06800
C1977       C  0.98173564  0.23568349  0.15341507     0.03800
C1978       C  0.97995606  0.23438637  0.12108393    -0.12300
C1979       C  0.98404135  0.21362529  0.10423845     0.01300
C1980       C  0.98933800  0.19366970  0.12091055    -0.10800
C1981       C  0.98979753  0.19384264  0.15314392     0.03800
C1982       C  0.98621783  0.21498315  0.16942350    -0.10300
H1983       H  0.97520359  0.24974919  0.10942799     0.09400
H1984       H  0.99327756  0.17770292  0.10928141     0.07000
H1985       H  0.98733986  0.21555116  0.19437844     0.06800
C1986       C  0.98173327  0.23530154  0.02045715     0.03800
C1987       C  0.97612314  0.20947496  0.00494509    -0.12300
C1988       C  0.97520316  0.18601585  0.02105743     0.01300
C1989       C  0.97626030  0.18677313  0.05327083    -0.10800
C1990       C  0.98223119  0.21247674  0.06963742     0.03800
C1991       C  0.98671277  0.23720160  0.05244945    -0.10300
H1992       H  0.97168636  0.20570955  0.47972979     0.09400
H1993       H  0.97287660  0.16719878  0.06501680     0.07000
H1994       H  0.99490397  0.25824522  0.06361641     0.06800
O1995       O  0.51875017  0.42021602  0.37266244    -0.87500
C1996       C  0.57055514  0.06899151  0.29204515     1.12600
O1997       O  0.99002066  0.44848461  0.33600904    -1.35300
O1998       O  0.57728026  0.05038331  0.36934521    -0.88900
O1999       O  0.96853930  0.38837143  0.36756037    -0.89600
O2000       O  0.95812831  0.44579932  0.40041576    -0.78400
O2001       O  0.54884002  0.48595996  0.36665774    -1.00500
C2002       C  0.98321735  0.02910530  0.39248672     1.22600
O2003       O  0.95640084  0.47609009  0.33563793    -1.35400
Mn2004     Mn  0.98853903  0.47849229  0.30230662     1.82100
O2005       O  0.98544130  0.00732338  0.40036816    -0.77500
O2006       O  0.54887794  0.07107852  0.37336636    -0.86900
C2007       C  0.98844017  0.03303233  0.28017470     1.13700
C2008       C  0.57116108  0.06879021  0.38116219     1.08400
O2009       O  0.95852555  0.44708021  0.27029143    -0.78400
O2010       O  0.51707515  0.01256569  0.33634469    -1.32100
O2011       O  0.93317376  0.41998467  0.30671288    -0.97700
C2012       C  0.89843653  0.47258919  0.37782350     1.07100
Mn2013     Mn  0.51755322  0.05320255  0.33758940     1.48600
O2014       O  0.89648266  0.44829440  0.36996551    -0.86900
Mn2015     Mn  0.95238772  0.40586717  0.33473675     1.49600
O2016       O  0.52010863  0.41925700  0.30417514    -0.90700
C2017       C  0.54430191  0.48657201  0.39420759     1.20300
C2018       C  0.99434516  0.39579729  0.29147043     1.12400
Mn2019     Mn  0.98768910  0.47782473  0.36948271     1.81000
O2020       O  0.98634912  0.03454832  0.30778930    -0.95900
Mn2021     Mn  0.53197590  0.45190597  0.33816194     1.49300
C2022       C  0.99304309  0.39413103  0.37977260     1.08900
Mn2023     Mn  0.95171466  0.01421434  0.33446842     1.49900
C2024       C  0.89992835  0.47229277  0.29012341     1.11800
O2025       O  0.93168659  0.41763182  0.36454964    -1.01700
O2026       O  0.55094796  0.07309777  0.30463253    -0.91400
C2027       C  0.93592843  0.42215950  0.39224756     1.23100
O2028       O  0.98393957  0.03395506  0.36495790    -1.02100
O2029       O  0.57544254  0.04845746  0.30022678    -0.89500
O2030       O  0.92072734  0.99821888  0.29805925    -0.89100
O2031       O  0.96896935  0.39113897  0.29935676    -0.89100
Mn2032     Mn  0.55969703  0.01723150  0.33631405     1.47900
O2033       O  0.98886327  0.01068274  0.27022546    -0.77600
C2034       C  0.93662058  0.42355889  0.27901695     1.16200
O2035       O  0.51962151  0.48286872  0.40204016    -0.76300
O2036       O  0.52180618  0.48319388  0.27175200    -0.70900
Mn2037     Mn  0.91594202  0.43552892  0.33573670     1.51100
O2038       O  0.91693907  0.99709007  0.36685150    -0.88300
O2039       O  0.54788066  0.48397348  0.30892480    -0.95800
O2040       O  0.89637517  0.44855743  0.30181855    -0.90800
C2041       C  0.54422711  0.48252056  0.28124704     1.13900
C2042       C  0.99972344  0.14025409  0.47325631    -0.11200
C2043       C  0.97384699  0.11285070  0.47258401     0.11400
C2044       C  0.94920359  0.10829277  0.49025053    -0.03000
C2045       C  0.94856714  0.13361950  0.00496742    -0.05700
C2046       C  0.97440308  0.16111642  0.00412388    -0.16500
C2047       C  0.00128865  0.16408917  0.48966466     0.02400
C2048       C  0.97356100  0.08961831  0.45281260     0.12400
C2049       C  0.91980873  0.07897377  0.99358080     0.63000
H2050       H  0.93013859  0.13145706  0.01836033     0.12400
C2051       C  0.53526342  0.19862293  0.48844736     0.55100
H2052       H  0.52007905  0.14841329  0.45594157     0.08200
C2053       C  0.96452425  0.08620180  0.42160268    -0.05600
C2054       C  0.96668560  0.06510032  0.40348125    -0.06300
C2055       C  0.97925543  0.04862609  0.41490095    -0.15900
C2056       C  0.98915926  0.05294809  0.44608463    -0.01500
C2057       C  0.98555591  0.07301846  0.46464297    -0.09100
C2058       C  0.95445509  0.10609682  0.40699000     0.65200
H2059       H  0.95945777  0.06211024  0.37967034     0.10700
C2060       C  0.49926672  0.03846453  0.46073598     0.63600
H2061       H  0.49071098  0.08041773  0.48771776     0.08000
F2062       F  0.53288136  0.22129937  0.47531161    -0.19400
F2063       F  0.55656285  0.19573847  0.47242793    -0.15700
F2064       F  0.54480799  0.20585757  0.51866195    -0.19200
F2065       F  0.92822001  0.06071331  0.00780282    -0.22500
F2066       F  0.91069750  0.06527835  0.46610067    -0.24000
F2067       F  0.89870129  0.08020663  0.01171590    -0.18000
F2068       F  0.50785085  0.04692170  0.49102058    -0.20500
F2069       F  0.52377474  0.04270180  0.44455928    -0.21600
F2070       F  0.47830279  0.00899789  0.46070163    -0.18800
F2071       F  0.94550572  0.09828687  0.37668204    -0.18900
F2072       F  0.97752561  0.13478315  0.40737697    -0.22800
F2073       F  0.93103537  0.10474460  0.42304344    -0.24400
C2074       C  0.97016283  0.29620809  0.48903400    -0.11200
C2075       C  0.98754213  0.30418594  0.46240098     0.11400
C2076       C  0.51020356  0.29692286  0.45790433    -0.03000
C2077       C  0.50911472  0.27545616  0.47798795    -0.05700
C2078       C  0.98341695  0.25899731  0.50104368    -0.16500
C2079       C  0.96658307  0.27280661  0.50775764     0.02400
C2080       C  0.98809185  0.32739587  0.44233717     0.12400
C2081       C  0.52768537  0.30337589  0.42817000     0.63000
H2082       H  0.52141590  0.26447149  0.47252124     0.12400
C2083       C  0.94667493  0.26631197  0.03607573     0.55100
H2084       H  0.95882111  0.30813278  0.49470109     0.08200
C2085       C  0.96306868  0.32314074  0.42538561    -0.05600
C2086       C  0.96558592  0.34614834  0.40676397    -0.06300
C2087       C  0.99276088  0.37227686  0.40228204    -0.15900
C2088       C  0.01829186  0.37526049  0.41774223    -0.01500
C2089       C  0.01476515  0.35374146  0.43926634    -0.09100
C2090       C  0.93392089  0.29429585  0.42628362     0.65200
H2091       H  0.94607507  0.34323645  0.39483739     0.10700
C2092       C  0.55292147  0.40436661  0.40895841     0.63600
H2093       H  0.53891832  0.36437347  0.45409037     0.08000
F2094       F  0.92550523  0.27422250  0.53079782    -0.19400
F2095       F  0.96083735  0.27489019  0.06426529    -0.15700
F2096       F  0.92854320  0.23610562  0.03543839    -0.19200
F2097       F  0.55294446  0.33057360  0.43016879    -0.22500
F2098       F  0.51078739  0.30308198  0.40340293    -0.24000
F2099       F  0.53618435  0.28268837  0.42237161    -0.18000
F2100       F  0.05540065  0.39996499  0.37997089    -0.20500
F2101       F  0.57469446  0.40169710  0.42440970    -0.21600
F2102       F  0.55669116  0.43161104  0.41589082    -0.18800
F2103       F  0.91484175  0.29271195  0.40313935    -0.18900
F2104       F  0.92020511  0.29156873  0.45421537    -0.22800
F2105       F  0.93871689  0.27082794  0.42232756    -0.24400
C2106       C  0.99146765  0.10333573  0.25067219    -0.11200
C2107       C  0.99441885  0.10082642  0.21907794     0.11400
C2108       C  0.50320596  0.08218168  0.20712920    -0.03000
C2109       C  0.49866513  0.05951582  0.22776129    -0.05700
C2110       C  0.99185306  0.05766928  0.26005342    -0.16500
C2111       C  0.98972096  0.08221296  0.27159308     0.02400
C2112       C  0.99279622  0.12300452  0.19925621     0.12400
C2113       C  0.51177887  0.08120028  0.17394603     0.63000
H2114       H  0.50074797  0.04112893  0.21955871     0.12400
C2115       C  0.98485077  0.08650456  0.30544815     0.55100
H2116       H  0.98954816  0.12190063  0.25864078     0.08200
C2117       C  0.96542434  0.12146749  0.19276898    -0.05600
C2118       C  0.96552750  0.14523140  0.17778833    -0.06300
C2119       C  0.99193029  0.17028617  0.16951511    -0.15900
C2120       C  0.53302730  0.18051164  0.17973655    -0.01500
C2121       C  0.53024359  0.15522813  0.19426326    -0.09100
C2122       C  0.93624709  0.09504002  0.20201838     0.65200
H2123       H  0.94492475  0.14461863  0.17260779     0.10700
C2124       C  0.56302934  0.20772129  0.17613735     0.63600
H2125       H  0.54957161  0.15519407  0.20333996     0.08000
F2126       F  0.98315499  0.11172156  0.31037254    -0.19400
F2127       F  0.00810735  0.08914715  0.32313228    -0.15700
F2128       F  0.95858576  0.06307546  0.31547233    -0.19200
F2129       F  0.54003735  0.10416546  0.16894256    -0.22500
F2130       F  0.98001168  0.07252150  0.15643864    -0.24000
F2131       F  0.51124874  0.05513246  0.16716805    -0.18000
F2132       F  0.56321730  0.23132284  0.19065313    -0.20500
F2133       F  0.56904022  0.21399526  0.14517346    -0.21600
F2134       F  0.58522860  0.20402594  0.18901037    -0.18800
F2135       F  0.91233799  0.09683714  0.19085656    -0.18900
F2136       F  0.93411087  0.09310412  0.23376968    -0.22800
F2137       F  0.93437680  0.06967820  0.19031747    -0.24400
C2138       C  0.51758418  0.34867364  0.24804054    -0.11200
C2139       C  0.99094694  0.33415516  0.22330446     0.11400
C2140       C  0.97285740  0.34704875  0.22034005    -0.03000
C2141       C  0.97580865  0.36826202  0.24222574    -0.05700
C2142       C  0.99584273  0.37658016  0.26705781    -0.16500
C2143       C  0.51961428  0.36973021  0.26954948     0.02400
C2144       C  0.98736838  0.30957024  0.20316908     0.12400
C2145       C  0.94967934  0.33754241  0.19499933     0.63000
H2146       H  0.96160950  0.37777386  0.24075978     0.12400
C2147       C  0.54301930  0.37997381  0.29473129     0.55100
H2148       H  0.53266711  0.34016787  0.24939805     0.08200
C2149       C  0.51580953  0.32169176  0.17965781    -0.05600
C2150       C  0.51558832  0.29851358  0.16302211    -0.06300
C2151       C  0.98141190  0.26038186  0.16997772    -0.15900
C2152       C  0.96091364  0.25634836  0.19345180    -0.01500
C2153       C  0.96496393  0.28102667  0.21037391    -0.09100
C2154       C  0.53783223  0.35332947  0.17159990     0.65200
H2155       H  0.53186579  0.30327134  0.14526282     0.10700
C2156       C  0.93460592  0.22666552  0.20124377     0.63600
H2157       H  0.95035819  0.27808198  0.22940863     0.08000
F2158       F  0.56293755  0.40959441  0.29127722    -0.19400
F2159       F  0.55873726  0.36514262  0.29374694    -0.15700
F2160       F  0.52980066  0.37503275  0.32332407    -0.19200
F2161       F  0.92803945  0.30866409  0.19949130    -0.22500
F2162       F  0.96233401  0.33993982  0.16647847    -0.24000
F2163       F  0.93634497  0.35464249  0.19466898    -0.18000
F2164       F  0.94155304  0.21492780  0.22624960    -0.20500
F2165       F  0.92616672  0.20717651  0.17672547    -0.21600
F2166       F  0.91059158  0.22983847  0.20876176    -0.18800
F2167       F  0.55510926  0.35517167  0.14664424    -0.18900
F2168       F  0.55633267  0.36717355  0.19637825    -0.22800
F2169       F  0.52293757  0.36809305  0.16421530    -0.24400
C2170       C  0.84195707  0.48674586  0.41766120    -0.11200
C2171       C  0.83430306  0.46764630  0.44275966     0.11400
C2172       C  0.84800919  0.45041829  0.44682047    -0.03000
C2173       C  0.86845394  0.45237764  0.42477356    -0.05700
C2174       C  0.87691441  0.47216270  0.40012353    -0.16500
C2175       C  0.86348497  0.48982269  0.39639614     0.02400
C2176       C  0.81040850  0.46512433  0.46281539     0.12400
C2177       C  0.84248420  0.93290797  0.47644000     0.63000
H2178       H  0.88179044  0.94262113  0.43028918     0.12400
C2179       C  0.87084902  0.51110928  0.36969632     0.55100
H2180       H  0.83081801  0.49936411  0.41498107     0.08200
C2181       C  0.80950246  0.98527334  0.47660482    -0.05600
C2182       C  0.78643591  0.98322846  0.49499812    -0.06300
C2183       C  0.76279556  0.45996631  0.49778185    -0.15900
C2184       C  0.75599290  0.44191492  0.97431585    -0.01500
C2185       C  0.78163425  0.44260853  0.45652533    -0.09100
C2186       C  0.83837408  0.01423009  0.47499854     0.65200
H2187       H  0.78882369  0.00250234  0.50685957     0.10700
C2188       C  0.72566203  0.41548831  0.96862712     0.63600
H2189       H  0.77796380  0.42737988  0.43780346     0.08000
F2190       F  0.89923058  0.53446710  0.37321637    -0.19400
F2191       F  0.85196912  0.52247229  0.36828027    -0.15700
F2192       F  0.86848248  0.49691250  0.34200429    -0.19200
F2193       F  0.80418679  0.40831851  0.96539093    -0.22500
F2194       F  0.84348108  0.95021832  0.50103906    -0.24000
F2195       F  0.86444410  0.92585625  0.48086172    -0.18000
F2196       F  0.72771210  0.39019410  0.96951401    -0.20500
F2197       F  0.71566100  0.41771929  0.93973951    -0.21600
F2198       F  0.70508333  0.41260308  0.99025598    -0.18800
F2199       F  0.83885855  0.03486648  0.49530130    -0.18900
F2200       F  0.84247968  0.02575777  0.44565746    -0.22800
F2201       F  0.86158287  0.00976122  0.48249988    -0.24400
C2202       C  0.58684028  0.48464973  0.46549418    -0.11200
C2203       C  0.61502857  0.49572377  0.45283781     0.11400
C2204       C  0.61723039  0.00396433  0.42258137    -0.03000
C2205       C  0.59407870  0.00283306  0.40503133    -0.05700
C2206       C  0.56811263  0.49200159  0.41677952    -0.16500
C2207       C  0.56296927  0.48218952  0.44789134     0.02400
C2208       C  0.63695882  0.49128720  0.47015510     0.12400
C2209       C  0.64818250  0.01823255  0.40942644     0.63000
H2210       H  0.59841526  0.01122586  0.38173111     0.12400
C2211       C  0.53234072  0.46703973  0.46183777     0.55100
H2212       H  0.58338945  0.47628656  0.48881447     0.08200
C2213       C  0.65396237  0.00695191  0.48998201    -0.05600
C2214       C  0.67239487  0.99847135  0.00575646    -0.06300
C2215       C  0.67865339  0.48284148  0.00417702    -0.15900
C2216       C  0.65518428  0.45727773  0.48068473    -0.01500
C2217       C  0.63504527  0.46387483  0.46648584    -0.09100
C2218       C  0.65200711  0.03216081  0.99810241     0.65200
H2219       H  0.69011683  0.01624906  0.01870880     0.10700
C2220       C  0.65145818  0.42689653  0.47631382     0.63600
H2221       H  0.61769081  0.44769758  0.45185281     0.08000
F2222       F  0.53237108  0.45768137  0.49165451    -0.19400
F2223       F  0.51369548  0.44260479  0.44434535    -0.15700
F2224       F  0.52157963  0.48631775  0.46278476    -0.19200
F2225       F  0.65708522  0.99756859  0.40640001    -0.22500
F2226       F  0.66753172  0.04046980  0.42888454    -0.24000
F2227       F  0.64973211  0.03045859  0.38075439    -0.18000
F2228       F  0.62424056  0.40740205  0.46357114    -0.20500
F2229       F  0.65363450  0.41559512  0.50435466    -0.21600
F2230       F  0.67297627  0.42864008  0.45665671    -0.18800
F2231       F  0.67930520  0.05484972  0.98934710    -0.18900
F2232       F  0.68535367  0.56560080  0.99329396    -0.22800
F2233       F  0.63573751  0.04094555  0.48346967    -0.24400
C2234       C  0.86275332  0.48441515  0.21995582    -0.11200
C2235       C  0.83297543  0.46551084  0.22678538     0.11400
C2236       C  0.82532591  0.44717308  0.25297126    -0.03000
C2237       C  0.84802025  0.44961938  0.27250301    -0.05700
C2238       C  0.87788667  0.46989114  0.26678503    -0.16500
C2239       C  0.88544373  0.48711698  0.23967306     0.02400
C2240       C  0.81023037  0.46621382  0.20671259     0.12400
C2241       C  0.79456051  0.93200677  0.26049288     0.63000
H2242       H  0.84289896  0.94010978  0.29291917     0.12400
C2243       C  0.91710046  0.50886841  0.23180224     0.55100
H2244       H  0.86803334  0.49793902  0.19953927     0.08200
C2245       C  0.80194703  0.48795913  0.21037043    -0.05600
C2246       C  0.77937992  0.48665134  0.19148376    -0.06300
C2247       C  0.76535051  0.46475062  0.16885015    -0.15900
C2248       C  0.77416673  0.44330797  0.16474269    -0.01500
C2249       C  0.79668415  0.44460475  0.18380616    -0.09100
C2250       C  0.82474487  0.01861359  0.22792263     0.65200
H2251       H  0.77253731  0.50292641  0.19409639     0.10700
C2252       C  0.75978656  0.41882921  0.14086589     0.63600
H2253       H  0.80392467  0.42863830  0.18107889     0.08000
F2254       F  0.92674107  0.53340451  0.25037826    -0.19400
F2255       F  0.91987859  0.51751720  0.20136040    -0.15700
F2256       F  0.93474054  0.49645162  0.23622177    -0.19200
F2257       F  0.78087424  0.40500992  0.23692342    -0.22500
F2258       F  0.78141175  0.94921701  0.26249382    -0.24000
F2259       F  0.79121749  0.91829433  0.28860324    -0.18000
F2260       F  0.76908420  0.43009959  0.11169847    -0.20500
F2261       F  0.72938661  0.40568278  0.14233522    -0.21600
F2262       F  0.76720467  0.39719411  0.14557260    -0.18800
F2263       F  0.81419642  0.03814808  0.22780100    -0.18900
F2264       F  0.84648610  0.52984511  0.22674621    -0.22800
F2265       F  0.82332323  0.00891555  0.25781807    -0.24400
C2266       C  0.62196090  0.44065075  0.19427145    -0.11200
C2267       C  0.62377946  0.46814473  0.19794291     0.11400
C2268       C  0.64808287  0.49349276  0.18522803    -0.03000
C2269       C  0.66988632  0.49040017  0.16932475    -0.05700
C2270       C  0.66842101  0.46305362  0.16629062    -0.16500
C2271       C  0.64389784  0.43765367  0.17840568     0.02400
C2272       C  0.60218981  0.47046785  0.21856657     0.12400
C2273       C  0.65733336  0.02741944  0.19911905     0.63000
H2274       H  0.68874920  0.50950881  0.15967184     0.12400
C2275       C  0.64108717  0.40764337  0.17433823     0.55100
H2276       H  0.60353944  0.42164958  0.20461557     0.08200
C2277       C  0.57436939  0.46573749  0.20843701    -0.05600
C2278       C  0.55638021  0.47033535  0.22940691    -0.06300
C2279       C  0.56493112  0.47862211  0.26034406    -0.15900
C2280       C  0.59267302  0.48223483  0.27059875    -0.01500
C2281       C  0.61052908  0.47800984  0.24934505    -0.09100
C2282       C  0.56762882  0.96168653  0.17454149     0.65200
H2283       H  0.53648665  0.96997452  0.21994847     0.10700
C2284       C  0.60426148  0.49093693  0.30349941     0.63600
H2285       H  0.63168400  0.48084270  0.25647588     0.08000
F2286       F  0.61536605  0.38560283  0.18712360    -0.19400
F2287       F  0.66462644  0.40720681  0.18846095    -0.15700
F2288       F  0.64092960  0.40159640  0.14325232    -0.19200
F2289       F  0.65486473  0.53153630  0.22000839    -0.22500
F2290       F  0.63376140  0.03036579  0.18924553    -0.24000
F2291       F  0.68254940  0.04923160  0.18522086    -0.18000
F2292       F  0.63235817  0.49487792  0.30709515    -0.20500
F2293       F  0.58607716  0.46914800  0.32375696    -0.21600
F2294       F  0.60573735  0.51718985  0.31134547    -0.18800
F2295       F  0.54139641  0.96102305  0.16768301    -0.18900
F2296       F  0.56034348  0.42743972  0.17194948    -0.22800
F2297       F  0.58937617  0.98234148  0.15582899    -0.24400
C2298       C  0.81561322  0.33236677  0.46680244    -0.11200
C2299       C  0.84381942  0.33605075  0.47191733     0.11400
C2300       C  0.84779386  0.31965742  0.49545736    -0.03000
C2301       C  0.82273032  0.29777355  0.51080833    -0.05700
C2302       C  0.79704222  0.29166517  0.00199012    -0.16500
C2303       C  0.79304997  0.31126579  0.98273696     0.02400
C2304       C  0.86863803  0.35726197  0.45212745     0.12400
C2305       C  0.87838791  0.32575990  0.50477352     0.63000
H2306       H  0.82518397  0.28423639  0.52805711     0.12400
C2307       C  0.76328398  0.30957553  0.97963994     0.55100
H2308       H  0.81318762  0.34581937  0.44944063     0.08200
C2309       C  0.87293330  0.34975142  0.42196952    -0.05600
C2310       C  0.89547770  0.37143873  0.40370934    -0.06300
C2311       C  0.91440937  0.40020865  0.41469776    -0.15900
C2312       C  0.91097229  0.40708356  0.44568533    -0.01500
C2313       C  0.88761423  0.38562752  0.46347982    -0.09100
C2314       C  0.85391950  0.31881286  0.40923959     0.65200
H2315       H  0.89845452  0.36593831  0.38042007     0.10700
C2316       C  0.93145032  0.43681575  0.46011613     0.63600
H2317       H  0.88381226  0.39083257  0.48658126     0.08000
F2318       F  0.76515620  0.33276321  0.96266809    -0.19400
F2319       F  0.75266352  0.31047430  0.00854289    -0.15700
F2320       F  0.74343574  0.28379587  0.96489392    -0.19200
F2321       F  0.89426245  0.35385656  0.51687594    -0.22500
F2322       F  0.89312522  0.32345491  0.47948426    -0.24000
F2323       F  0.87725878  0.30630112  0.52695575    -0.18000
F2324       F  0.93039582  0.45865084  0.44339072    -0.20500
F2325       F  0.95991936  0.44153839  0.46050016    -0.21600
F2326       F  0.92389226  0.43870890  0.49024875    -0.18800
F2327       F  0.86200784  0.31599907  0.37960661    -0.18900
F2328       F  0.82463724  0.31163469  0.40841693    -0.22800
F2329       F  0.85678686  0.29897550  0.42779014    -0.24400
C2330       C  0.64972537  0.16713499  0.48571315    -0.11200
C2331       C  0.65677184  0.14878049  0.46866723     0.11400
C2332       C  0.68612267  0.15402770  0.46859802    -0.03000
C2333       C  0.70742876  0.17714402  0.48680864    -0.05700
C2334       C  0.70046506  0.19574473  0.50358672    -0.16500
C2335       C  0.67130343  0.19109678  0.50273525     0.02400
C2336       C  0.63404277  0.12738838  0.44731274     0.12400
C2337       C  0.69513969  0.13619139  0.44829707     0.63000
H2338       H  0.72999452  0.18153200  0.48736011     0.12400
C2339       C  0.66872224  0.21394357  0.01500211     0.55100
H2340       H  0.62735142  0.16325130  0.48438204     0.08200
C2341       C  0.61273534  0.09856324  0.45619145    -0.05600
C2342       C  0.59265664  0.07959886  0.43377928    -0.06300
C2343       C  0.59218694  0.08951880  0.40389610    -0.15900
C2344       C  0.61318018  0.11851285  0.39532266    -0.01500
C2345       C  0.63374305  0.13706276  0.41735764    -0.09100
C2346       C  0.61054872  0.08842447  0.48929075     0.65200
H2347       H  0.57698493  0.05703300  0.43948564     0.10700
C2348       C  0.61443542  0.12942135  0.36271201     0.63600
H2349       H  0.65006519  0.15936878  0.41135715     0.08000
F2350       F  0.66986709  0.21156827  0.04663890    -0.19400
F2351       F  0.63463279  0.20528233  0.51166448    -0.15700
F2352       F  0.68917922  0.24221492  0.00626098    -0.19200
F2353       F  0.69151141  0.14082077  0.41762065    -0.22500
F2354       F  0.67796798  0.10659712  0.45466033    -0.24000
F2355       F  0.72440630  0.14404996  0.45284886    -0.18000
F2356       F  0.58811824  0.12835581  0.35555635    -0.20500
F2357       F  0.61911911  0.11186563  0.34230571    -0.21600
F2358       F  0.63703685  0.15811026  0.35907228    -0.18800
F2359       F  0.58896902  0.06229851  0.99578884    -0.18900
F2360       F  0.60172597  0.10907478  0.00611109    -0.22800
F2361       F  0.63653897  0.09587995  0.00297750    -0.24400
C2362       C  0.84589106  0.30510926  0.19568050    -0.11200
C2363       C  0.84625097  0.33129712  0.20330098     0.11400
C2364       C  0.82299599  0.33587062  0.19340068    -0.03000
C2365       C  0.79939920  0.31338467  0.17679160    -0.05700
C2366       C  0.79880825  0.28706246  0.16955482    -0.16500
C2367       C  0.82232605  0.28269174  0.17883961     0.02400
C2368       C  0.87074236  0.35337087  0.22258369     0.12400
C2369       C  0.82332387  0.36449751  0.20012770     0.63000
H2370       H  0.78119591  0.31618088  0.16911684     0.12400
C2371       C  0.82233792  0.25448806  0.17094979     0.55100
H2372       H  0.86413788  0.30234619  0.20326806     0.08200
C2373       C  0.86982860  0.35149408  0.25501690    -0.05600
C2374       C  0.89195740  0.37484061  0.27204880    -0.06300
C2375       C  0.91527007  0.39982189  0.25789120    -0.15900
C2376       C  0.91704343  0.40061021  0.22514640    -0.01500
C2377       C  0.89441600  0.37728441  0.20810304    -0.09100
C2378       C  0.84541189  0.32503888  0.27157745     0.65200
H2379       H  0.89088071  0.37362361  0.29694456     0.10700
C2380       C  0.94231707  0.42556653  0.20798541     0.63600
H2381       H  0.89466337  0.37765742  0.18313843     0.08000
F2382       F  0.79712961  0.23059029  0.18231005    -0.19400
F2383       F  0.84654995  0.25406402  0.18344563    -0.15700
F2384       F  0.82303982  0.25174071  0.13929294    -0.19200
F2385       F  0.84703371  0.38739807  0.18546786    -0.22500
F2386       F  0.82576676  0.37002651  0.23149852    -0.24000
F2387       F  0.79783819  0.36372020  0.18981208    -0.18000
F2388       F  0.96883461  0.42808137  0.21727740    -0.20500
F2389       F  0.94255833  0.45157984  0.21383915    -0.21600
F2390       F  0.93982629  0.42097358  0.17639839    -0.18800
F2391       F  0.84824334  0.32811023  0.30333241    -0.18900
F2392       F  0.84633669  0.29999584  0.26352686    -0.22800
F2393       F  0.81815446  0.32137207  0.26350926    -0.24400
C2394       C  0.64629084  0.17404515  0.18728595    -0.11200
C2395       C  0.65293771  0.15766457  0.20811653     0.11400
C2396       C  0.68221422  0.16286613  0.21015388    -0.03000
C2397       C  0.70383875  0.18409400  0.19086397    -0.05700
C2398       C  0.69742205  0.20066649  0.17006265    -0.16500
C2399       C  0.66822753  0.19603052  0.16856672     0.02400
C2400       C  0.62908332  0.13531996  0.22793032     0.12400
C2401       C  0.69064142  0.14598488  0.23255663     0.63000
H2402       H  0.72622935  0.18799110  0.19184861     0.12400
C2403       C  0.66045593  0.21498103  0.14856900     0.55100
H2404       H  0.62373870  0.16965235  0.18608977     0.08200
C2405       C  0.62017056  0.14309830  0.25550415    -0.05600
C2406       C  0.60017036  0.12057904  0.27492444    -0.06300
C2407       C  0.58956360  0.09071142  0.26831702    -0.15900
C2408       C  0.59714876  0.08299316  0.23975376    -0.01500
C2409       C  0.61666597  0.10554841  0.21992455    -0.09100
C2410       C  0.63238506  0.17501590  0.26487838     0.65200
H2411       H  0.59339063  0.12625218  0.29616427     0.10700
C2412       C  0.58518517  0.05129583  0.23024941     0.63600
H2413       H  0.62345201  0.10011432  0.19847917     0.08000
F2414       F  0.63232161  0.20993839  0.15452120    -0.19400
F2415       F  0.66153088  0.20891859  0.11777047    -0.15700
F2416       F  0.68005806  0.24439508  0.15426375    -0.19200
F2417       F  0.67753908  0.11687730  0.22346475    -0.22500
F2418       F  0.68141635  0.14751109  0.26200140    -0.24000
F2419       F  0.72087141  0.15721034  0.23370494    -0.18000
F2420       F  0.59866955  0.03944179  0.24789638    -0.20500
F2421       F  0.59067245  0.04872748  0.19950847    -0.21600
F2422       F  0.55497006  0.03556895  0.23446031    -0.18800
F2423       F  0.62129687  0.17762121  0.29293509    -0.18900
F2424       F  0.62490637  0.18928083  0.24295605    -0.22800
F2425       F  0.66276908  0.18883690  0.26749583    -0.24400
C2426       C  0.72185249  0.22280400  0.65472608     0.03800
C2427       C  0.74648608  0.24483457  0.67043687    -0.12300
C2428       C  0.77088891  0.26578862  0.65413744     0.01300
C2429       C  0.77069162  0.26522210  0.62194758    -0.10800
C2430       C  0.74591112  0.24423491  0.60512957     0.03800
C2431       C  0.72157462  0.22277148  0.62224799    -0.10300
H2432       H  0.74684223  0.24543011  0.69542941     0.09400
H2433       H  0.79060478  0.28117052  0.61064851     0.07000
H2434       H  0.70234792  0.20559850  0.61095770     0.06800
C2435       C  0.72444409  0.22064495  0.52077748     0.03800
C2436       C  0.74727391  0.24414172  0.50492893    -0.12300
C2437       C  0.76888677  0.26863513  0.52109359     0.01300
C2438       C  0.76760254  0.26906884  0.55345129    -0.10800
C2439       C  0.74602193  0.24458414  0.57022036     0.03800
C2440       C  0.72473745  0.22032603  0.55303289    -0.10300
H2441       H  0.75133544  0.24191059  0.97780948     0.09400
H2442       H  0.78383323  0.28887277  0.56489475     0.07000
H2443       H  0.70818573  0.20063000  0.56405438     0.06800
C2444       C  0.74082839  0.46293815  0.64802913     0.03800
C2445       C  0.71689881  0.46158743  0.66399309    -0.12300
C2446       C  0.69310625  0.46055625  0.64788034     0.01300
C2447       C  0.69313873  0.46055719  0.61556380    -0.10800
C2448       C  0.71759063  0.46337461  0.59880913     0.03800
C2449       C  0.74166605  0.46520370  0.61575706    -0.10300
H2450       H  0.71676098  0.46129646  0.68898118     0.09400
H2451       H  0.67380690  0.45836123  0.60397547     0.07000
H2452       H  0.76156590  0.46893307  0.60433559     0.06800
C2453       C  0.73903034  0.46147125  0.51464158     0.03800
C2454       C  0.73739767  0.45869953  0.54685277    -0.12300
C2455       C  0.71816913  0.46483497  0.56407066     0.01300
C2456       C  0.69969203  0.47263904  0.54760536    -0.10800
C2457       C  0.69990034  0.47361644  0.51526609     0.03800
C2458       C  0.72033057  0.46905175  0.49897392    -0.10300
H2459       H  0.75153806  0.45192852  0.55804179     0.09400
H2460       H  0.68492791  0.47813108  0.55946164     0.07000
H2461       H  0.71983972  0.47333006  0.97695779     0.06800
C2462       C  0.99345102  0.24039880  0.65211765     0.03800
C2463       C  0.98908238  0.23812907  0.62006359    -0.12300
C2464       C  0.99212633  0.21702260  0.60263829     0.01300
C2465       C  0.99960807  0.19813120  0.61841445    -0.10800
C2466       C  0.00256297  0.19921092  0.65051291     0.03800
C2467       C  0.00011953  0.22076905  0.66730785    -0.10300
H2468       H  0.98240751  0.25244717  0.60921644     0.09400
H2469       H  0.00261660  0.18182111  0.60626990     0.07000
H2470       H  0.00225921  0.22155129  0.69220487     0.06800
C2471       C  0.98148014  0.23418807  0.51937628     0.03800
C2472       C  0.97537114  0.20796842  0.50444601    -0.12300
C2473       C  0.97563378  0.18523870  0.52091694     0.01300
C2474       C  0.97908416  0.18745585  0.55295167    -0.10800
C2475       C  0.98632858  0.21390705  0.56851564     0.03800
C2476       C  0.98859024  0.23754678  0.55091949    -0.10300
H2477       H  0.97336246  0.20786939  0.98010854     0.09400
H2478       H  0.97702553  0.16858322  0.56508012     0.07000
H2479       H  0.99688210  0.25899733  0.56125217     0.06800
O2480       O  0.51803832  0.41960624  0.87430877    -0.87500
C2481       C  0.57025558  0.06614972  0.79345168     1.12600
O2482       O  0.99056293  0.44929197  0.83470012    -1.35300
O2483       O  0.57715792  0.04675509  0.86976065    -0.88900
O2484       O  0.96881498  0.38987343  0.86842886    -0.89600
O2485       O  0.95926830  0.44809671  0.89944145    -0.78400
O2486       O  0.54872303  0.48591628  0.86543405    -1.00500
C2487       C  0.98099927  0.02981738  0.89133210     1.22600
O2488       O  0.95742314  0.47760466  0.83379476    -1.35400
Mn2489     Mn  0.98924872  0.47924104  0.80043705     1.82100
O2490       O  0.98331842  0.00823730  0.89973285    -0.77500
O2491       O  0.54897517  0.06763009  0.87535039    -0.86900
C2492       C  0.98801155  0.03258653  0.77884870     1.13700
C2493       C  0.57133644  0.06516743  0.88233895     1.08400
O2494       O  0.95890933  0.44786492  0.76912042    -0.78400
O2495       O  0.51669799  0.01001532  0.83735593    -1.32100
O2496       O  0.93347499  0.42065808  0.80567593    -0.97700
C2497       C  0.89887421  0.47495761  0.87568209     1.07100
Mn2498     Mn  0.51777552  0.05091509  0.83944797     1.48600
O2499       O  0.89715776  0.45064122  0.86820041    -0.86900
Mn2500     Mn  0.95269946  0.40685145  0.83450970     1.49600
O2501       O  0.51846788  0.41673279  0.80616934    -0.90700
C2502       C  0.54515095  0.48719249  0.89304965     1.20300
C2503       C  0.99361024  0.39426264  0.79237994     1.12400
Mn2504     Mn  0.98891665  0.47941136  0.86770895     1.81000
O2505       O  0.98553116  0.03451194  0.80635382    -0.95900
Mn2506     Mn  0.53133467  0.45070487  0.83863112     1.49300
C2507       C  0.99343050  0.39547325  0.88037553     1.08900
Mn2508     Mn  0.95058925  0.01449284  0.83246368     1.49900
C2509       C  0.90091092  0.47333447  0.78760908     1.11800
O2510       O  0.93293962  0.42023215  0.86347493    -1.01700
O2511       O  0.55132066  0.07083679  0.80674212    -0.91400
C2512       C  0.93694441  0.42460398  0.89115399     1.23100
O2513       O  0.98209789  0.03455321  0.86369586    -1.02100
O2514       O  0.57437853  0.04491160  0.80067449    -0.89500
O2515       O  0.91995129  0.99790473  0.79542136    -0.89100
O2516       O  0.96840824  0.39021848  0.80011186    -0.89100
Mn2517     Mn  0.55883689  0.01341453  0.83638802     1.47900
O2518       O  0.98919223  0.01037682  0.76976762    -0.77600
C2519       C  0.93700780  0.42443533  0.77793886     1.16200
O2520       O  0.52090746  0.48445179  0.90121784    -0.76300
O2521       O  0.52074232  0.47934591  0.77069779    -0.70900
Mn2522     Mn  0.91674938  0.43725165  0.83433475     1.51100
O2523       O  0.91571734  0.99810684  0.86424482    -0.88300
O2524       O  0.54750582  0.48201170  0.80807255    -0.95800
O2525       O  0.89715453  0.44973506  0.79987471    -0.90800
C2526       C  0.54350570  0.47938337  0.78039419     1.13900
C2527       C  0.99701720  0.14017716  0.97161314    -0.11200
C2528       C  0.97071244  0.11314917  0.97105472     0.11400
C2529       C  0.94664128  0.10912265  0.98938681    -0.03000
C2530       C  0.95013465  0.13261766  0.50524223    -0.05700
C2531       C  0.97553571  0.16048601  0.50440979    -0.16500
C2532       C  0.99959589  0.16415495  0.98860032     0.02400
C2533       C  0.96986306  0.08959258  0.95137376     0.12400
C2534       C  0.92283806  0.07773472  0.49433852     0.63000
H2535       H  0.93128923  0.13002223  0.51816348     0.12400
C2536       C  0.53885710  0.19655837  0.98351832     0.55100
H2537       H  0.52154658  0.14582562  0.95445550     0.08200
C2538       C  0.96184679  0.08680541  0.91985938    -0.05600
C2539       C  0.96468470  0.06611544  0.90167734    -0.06300
C2540       C  0.97671430  0.04929034  0.91348632    -0.15900
C2541       C  0.98549851  0.05290576  0.94505255    -0.01500
C2542       C  0.98130874  0.07263727  0.96352299    -0.09100
C2543       C  0.95178384  0.10667233  0.90516455     0.65200
H2544       H  0.95826556  0.06360010  0.87761403     0.10700
C2545       C  0.50027097  0.03483109  0.96171440     0.63600
H2546       H  0.49356839  0.07752724  0.98965652     0.08000
F2547       F  0.54016239  0.20845565  0.95477202    -0.19400
F2548       F  0.56122668  0.18975621  0.98581914    -0.15700
F2549       F  0.54418351  0.21755776  0.00576920    -0.19200
F2550       F  0.93185925  0.06018107  0.50908449    -0.22500
F2551       F  0.90715555  0.06697267  0.96539438    -0.24000
F2552       F  0.90105304  0.07824880  0.51194694    -0.18000
F2553       F  0.51016579  0.04350687  0.99164444    -0.20500
F2554       F  0.52384802  0.03815147  0.94443474    -0.21600
F2555       F  0.47874762  0.00558216  0.96234666    -0.18800
F2556       F  0.94486154  0.10017064  0.87424678    -0.18900
F2557       F  0.97404867  0.13564428  0.90746734    -0.22800
F2558       F  0.92702346  0.10362674  0.91987268    -0.24400
C2559       C  0.97312642  0.29956725  0.99143155    -0.11200
C2560       C  0.98858219  0.30592522  0.96358014     0.11400
C2561       C  0.51065765  0.29454927  0.95431956    -0.03000
C2562       C  0.51048476  0.27360079  0.97457558    -0.05700
C2563       C  0.98440508  0.26073685  0.00247616    -0.16500
C2564       C  0.96906696  0.27595726  0.01011136     0.02400
C2565       C  0.98904271  0.32909907  0.94346704     0.12400
C2566       C  0.53015269  0.30351267  0.92593535     0.63000
H2567       H  0.52470590  0.26445352  0.97020684     0.12400
C2568       C  0.94353778  0.26191974  0.53310121     0.55100
H2569       H  0.96320490  0.31266058  0.99788589     0.08200
C2570       C  0.96366943  0.32519158  0.92752133    -0.05600
C2571       C  0.96604652  0.34815242  0.90882036    -0.06300
C2572       C  0.99330677  0.37396337  0.90344692    -0.15900
C2573       C  0.01906037  0.37682392  0.91844566    -0.01500
C2574       C  0.01582801  0.35516067  0.93968121    -0.09100
C2575       C  0.93448819  0.29641951  0.92913688     0.65200
H2576       H  0.94641474  0.34536319  0.89728780     0.10700
C2577       C  0.54555150  0.41074281  0.92672279     0.63600
H2578       H  0.53357202  0.36213579  0.95906343     0.08000
F2579       F  0.92877522  0.27872346  0.03325724    -0.19400
F2580       F  0.95700162  0.26923523  0.56171872    -0.15700
F2581       F  0.92572121  0.23173132  0.53095226    -0.19200
F2582       F  0.55255252  0.33233836  0.92889401    -0.22500
F2583       F  0.51364093  0.30078511  0.89986777    -0.24000
F2584       F  0.54294116  0.28612416  0.92176797    -0.18000
F2585       F  0.05633887  0.40120964  0.88075600    -0.20500
F2586       F  0.56443228  0.41181131  0.94976748    -0.21600
F2587       F  0.53736674  0.43130736  0.93361704    -0.18800
F2588       F  0.91344297  0.29626265  0.90951679    -0.18900
F2589       F  0.92339014  0.29180872  0.95867621    -0.22800
F2590       F  0.93867430  0.27329883  0.92079265    -0.24400
C2591       C  0.99042780  0.10209120  0.74735425    -0.11200
C2592       C  0.99885604  0.10210642  0.71692865     0.11400
C2593       C  0.50993212  0.08451957  0.71089026    -0.03000
C2594       C  0.50406284  0.06110289  0.73101219    -0.05700
C2595       C  0.99144592  0.05689091  0.75804094    -0.16500
C2596       C  0.98619472  0.07994392  0.76819102     0.02400
C2597       C  0.99992329  0.12545765  0.69664519     0.12400
C2598       C  0.52466228  0.08709423  0.68007539     0.63000
H2599       H  0.50872086  0.04410175  0.72364371     0.12400
C2600       C  0.97562502  0.08168259  0.80046841     0.55100
H2601       H  0.98671837  0.11979206  0.75447925     0.08200
C2602       C  0.97362932  0.12454071  0.68644081    -0.05600
C2603       C  0.97571075  0.14918420  0.67143196    -0.06300
C2604       C  0.00297690  0.17450288  0.66644865    -0.15900
C2605       C  0.53456328  0.18178311  0.68496711    -0.01500
C2606       C  0.53202970  0.15689862  0.70021462    -0.09100
C2607       C  0.94337024  0.09799200  0.69205180     0.65200
H2608       H  0.95589361  0.14915466  0.66390828     0.10700
C2609       C  0.56358564  0.21055560  0.68558939     0.63600
H2610       H  0.55055810  0.15845750  0.71310956     0.08000
F2611       F  0.96995421  0.10469272  0.80357625    -0.19400
F2612       F  0.99698543  0.08606582  0.82205155    -0.15700
F2613       F  0.94963943  0.05621682  0.80687952    -0.19200
F2614       F  0.55148674  0.11295565  0.67946502    -0.22500
F2615       F  0.99706545  0.08124372  0.65297005    -0.24000
F2616       F  0.52984859  0.06399091  0.67502255    -0.18000
F2617       F  0.56016676  0.23170719  0.70110243    -0.20500
F2618       F  0.57261320  0.21986946  0.65576750    -0.21600
F2619       F  0.58560568  0.20773391  0.70030619    -0.18800
F2620       F  0.92147396  0.09978848  0.67576861    -0.18900
F2621       F  0.93657931  0.09605651  0.72303059    -0.22800
F2622       F  0.94307332  0.07262030  0.68279746    -0.24400
C2623       C  0.51206304  0.34136602  0.75595057    -0.11200
C2624       C  0.99194966  0.33208933  0.72547595     0.11400
C2625       C  0.97126315  0.34201837  0.72377040    -0.03000
C2626       C  0.97291474  0.36257102  0.74583029    -0.05700
C2627       C  0.99475213  0.37384769  0.76906858    -0.16500
C2628       C  0.51319245  0.36187829  0.77763794     0.02400
C2629       C  0.99102636  0.30917145  0.70442678     0.12400
C2630       C  0.94773662  0.33120931  0.69866586     0.63000
H2631       H  0.95694417  0.36997454  0.74511546     0.12400
C2632       C  0.53132578  0.36747421  0.80695465     0.55100
H2633       H  0.52467364  0.33035636  0.75974922     0.08200
C2634       C  0.51864765  0.31931459  0.68764495    -0.05600
C2635       C  0.51904063  0.29668616  0.67051963    -0.06300
C2636       C  0.99067191  0.26327242  0.66961437    -0.15900
C2637       C  0.96906223  0.25657008  0.69268529    -0.01500
C2638       C  0.97040013  0.27967884  0.71042544    -0.09100
C2639       C  0.54414807  0.35051996  0.68505799     0.65200
H2640       H  0.53752452  0.30158814  0.65563043     0.10700
C2641       C  0.94375336  0.22586602  0.69923199     0.63600
H2642       H  0.95485404  0.27465209  0.72907720     0.08000
F2643       F  0.55455124  0.39607384  0.80736769    -0.19400
F2644       F  0.54304143  0.34897365  0.80919631    -0.15700
F2645       F  0.51372452  0.36276860  0.83246823    -0.19200
F2646       F  0.93003793  0.30103586  0.70007737    -0.22500
F2647       F  0.96097210  0.33874520  0.67007627    -0.24000
F2648       F  0.92969070  0.34340349  0.70155668    -0.18000
F2649       F  0.94755930  0.21734134  0.72823439    -0.20500
F2650       F  0.94123954  0.20505341  0.67800135    -0.21600
F2651       F  0.91745941  0.22624724  0.69864247    -0.18800
F2652       F  0.56142644  0.35374499  0.65963342    -0.18900
F2653       F  0.56151824  0.35763365  0.71129223    -0.22800
F2654       F  0.53378741  0.37001440  0.68196508    -0.24400
C2655       C  0.84137474  0.48951296  0.91426297    -0.11200
C2656       C  0.83142247  0.46886742  0.93811520     0.11400
C2657       C  0.84365008  0.45023875  0.94153858    -0.03000
C2658       C  0.86560093  0.45300065  0.92077244    -0.05700
C2659       C  0.87643550  0.47438428  0.89743631    -0.16500
C2660       C  0.86401635  0.49306036  0.89408086     0.02400
C2661       C  0.80820395  0.46740690  0.95923554     0.12400
C2662       C  0.83704750  0.93122170  0.97165932     0.63000
H2663       H  0.87638377  0.94050259  0.92567126     0.12400
C2664       C  0.87394382  0.51632990  0.86907760     0.55100
H2665       H  0.83133885  0.50316398  0.91185019     0.08200
C2666       C  0.81231046  0.98675070  0.98336301    -0.05600
C2667       C  0.78917860  0.98285188  0.00291512    -0.06300
C2668       C  0.76262156  0.46302262  0.99812470    -0.15900
C2669       C  0.75758460  0.43934626  0.47388346    -0.01500
C2670       C  0.77891015  0.44489863  0.95493854    -0.09100
C2671       C  0.84226418  0.01418914  0.98651969     0.65200
H2672       H  0.79292150  0.99948905  0.01998530     0.10700
C2673       C  0.72757290  0.41355236  0.46569352     0.63600
H2674       H  0.77392557  0.42920440  0.93635815     0.08000
F2675       F  0.90256772  0.53834394  0.87498501    -0.19400
F2676       F  0.85641317  0.52923500  0.86781877    -0.15700
F2677       F  0.87248077  0.50385938  0.84050213    -0.19200
F2678       F  0.83034792  0.40140963  0.46277818    -0.22500
F2679       F  0.84162394  0.94729187  0.99846448    -0.24000
F2680       F  0.85444622  0.91828623  0.97309186    -0.18000
F2681       F  0.72937423  0.38812326  0.46454667    -0.20500
F2682       F  0.71913731  0.41819500  0.43693523    -0.21600
F2683       F  0.70607926  0.40913351  0.48683577    -0.18800
F2684       F  0.84406095  0.03000446  0.01283187    -0.18900
F2685       F  0.84699618  0.03196111  0.96124666    -0.22800
F2686       F  0.86428762  0.00691479  0.98815562    -0.24400
C2687       C  0.59215691  0.49645732  0.96553290    -0.11200
C2688       C  0.61534748  0.49422566  0.95224230     0.11400
C2689       C  0.61385215  0.99383861  0.92430872    -0.03000
C2690       C  0.59189885  0.99428565  0.90600525    -0.05700
C2691       C  0.56904035  0.49089065  0.91501834    -0.16500
C2692       C  0.56850019  0.49421183  0.94764011     0.02400
C2693       C  0.63719394  0.49262334  0.97274172     0.12400
C2694       C  0.64421185  0.00376557  0.91096565     0.63000
H2695       H  0.59704554  0.00206922  0.88251488     0.12400
C2696       C  0.54277540  0.49388959  0.96400408     0.55100
H2697       H  0.59224897  0.49877751  0.99035784     0.08200
C2698       C  0.65053730  0.00292988  0.99204465    -0.05600
C2699       C  0.67439440  0.00038877  0.50375319    -0.06300
C2700       C  0.67839517  0.47929168  0.49870252    -0.15900
C2701       C  0.64894725  0.45994050  0.00204314    -0.01500
C2702       C  0.62868553  0.46529702  0.98617006    -0.09100
C2703       C  0.65589644  0.03584471  0.49889403     0.65200
H2704       H  0.69113188  0.01638243  0.51914320     0.10700
C2705       C  0.63885512  0.42983218  0.01588748     0.63600
H2706       H  0.60609295  0.44787359  0.98329295     0.08000
F2707       F  0.54736307  0.49795293  0.99553724    -0.19400
F2708       F  0.51758905  0.46714694  0.95919453    -0.15700
F2709       F  0.53853195  0.51605694  0.95286033    -0.19200
F2710       F  0.65055760  0.98115876  0.91258103    -0.22500
F2711       F  0.66525234  0.02764933  0.92747644    -0.24000
F2712       F  0.64602615  0.01195860  0.88038220    -0.18000
F2713       F  0.60920626  0.41057106  0.01029753    -0.20500
F2714       F  0.64309872  0.43227939  0.04747249    -0.21600
F2715       F  0.65480007  0.41785487  0.00329523    -0.18800
F2716       F  0.68389028  0.05876681  0.49261007    -0.18900
F2717       F  0.66170017  0.54581338  0.52821129    -0.22800
F2718       F  0.63055399  0.03523506  0.98260136    -0.24400
C2719       C  0.86416605  0.48233281  0.71502134    -0.11200
C2720       C  0.83429673  0.46543980  0.72286944     0.11400
C2721       C  0.82639015  0.44927780  0.75068965    -0.03000
C2722       C  0.84895029  0.45206515  0.77067898    -0.05700
C2723       C  0.87895814  0.47057510  0.76389044    -0.16500
C2724       C  0.88673595  0.48540998  0.73522552     0.02400
C2725       C  0.81176726  0.46608537  0.70223199     0.12400
C2726       C  0.79244583  0.93151557  0.76232807     0.63000
H2727       H  0.84185821  0.94071717  0.79334330     0.12400
C2728       C  0.91860410  0.50489463  0.72624583     0.55100
H2729       H  0.86966922  0.49403567  0.69333774     0.08200
C2730       C  0.80587353  0.48970521  0.70296257    -0.05600
C2731       C  0.78305391  0.48813473  0.68422977    -0.06300
C2732       C  0.76575074  0.46361526  0.66543202    -0.15900
C2733       C  0.77153391  0.43988933  0.66485896    -0.01500
C2734       C  0.79512080  0.44198683  0.68269759    -0.09100
C2735       C  0.82047413  0.01666369  0.72606582     0.65200
H2736       H  0.77813216  0.50590020  0.68445862     0.10700
C2737       C  0.75183176  0.41177692  0.64705121     0.63600
H2738       H  0.80018187  0.42432012  0.68238639     0.08000
F2739       F  0.93053392  0.52992468  0.74429946    -0.19400
F2740       F  0.92141611  0.51325973  0.69564703    -0.15700
F2741       F  0.93416817  0.49021305  0.73057191    -0.19200
F2742       F  0.78063857  0.40691424  0.73820556    -0.22500
F2743       F  0.77922724  0.94866535  0.76418287    -0.24000
F2744       F  0.79011319  0.91880313  0.79087290    -0.18000
F2745       F  0.75350759  0.41739663  0.61581238    -0.20500
F2746       F  0.72293620  0.40032701  0.65656955    -0.21600
F2747       F  0.75989950  0.39062540  0.65182321    -0.18800
F2748       F  0.80950438  0.03585286  0.72547372    -0.18900
F2749       F  0.85256652  0.53074971  0.71585657    -0.22800
F2750       F  0.81990391  0.00799723  0.75624844    -0.24400
C2751       C  0.62186710  0.43769157  0.69198294    -0.11200
C2752       C  0.62439837  0.46521879  0.69823537     0.11400
C2753       C  0.64988768  0.49112749  0.68814460    -0.03000
C2754       C  0.67132370  0.48853441  0.67098741    -0.05700
C2755       C  0.66877475  0.46113838  0.66485756    -0.16500
C2756       C  0.64390973  0.43527832  0.67556472     0.02400
C2757       C  0.60208684  0.46672729  0.71859056     0.12400
C2758       C  0.65099143  0.02415143  0.68923106     0.63000
H2759       H  0.69087860  0.50802477  0.66301268     0.12400
C2760       C  0.64118775  0.40549548  0.66972931     0.55100
H2761       H  0.60281273  0.41816724  0.70068503     0.08200
C2762       C  0.57475371  0.46289968  0.70780965    -0.05600
C2763       C  0.55628358  0.46709953  0.72859516    -0.06300
C2764       C  0.56419622  0.47487823  0.75978671    -0.15900
C2765       C  0.59145289  0.47760043  0.77054469    -0.01500
C2766       C  0.60940927  0.47305102  0.74970521    -0.09100
C2767       C  0.56098082  0.95538173  0.67371245     0.65200
H2768       H  0.53184916  0.96440225  0.72096602     0.10700
C2769       C  0.60238795  0.48549668  0.80366890     0.63600
H2770       H  0.63004267  0.47496231  0.75739274     0.08000
F2771       F  0.61622073  0.38305506  0.68311253    -0.19400
F2772       F  0.66535132  0.40490974  0.68200838    -0.15700
F2773       F  0.63984470  0.40023001  0.63832986    -0.19200
F2774       F  0.65966601  0.52597350  0.72798886    -0.22500
F2775       F  0.62739486  0.02572597  0.67692338    -0.24000
F2776       F  0.67648043  0.04561443  0.67540401    -0.18000
F2777       F  0.63010425  0.48861876  0.80783181    -0.20500
F2778       F  0.58329083  0.46345489  0.82314921    -0.21600
F2779       F  0.60446983  0.51195644  0.81186280    -0.18800
F2780       F  0.56044621  0.92933419  0.66706489    -0.18900
F2781       F  0.56478963  0.42878346  0.66712924    -0.22800
F2782       F  0.53278911  0.95091338  0.66911980    -0.24400
C2783       C  0.81752902  0.33306822  0.96658756    -0.11200
C2784       C  0.84553087  0.33569732  0.96897798     0.11400
C2785       C  0.84982331  0.31702848  0.98925587    -0.03000
C2786       C  0.82538630  0.29520044  0.00540702    -0.05700
C2787       C  0.79422310  0.29293175  0.50448437    -0.16500
C2788       C  0.79074371  0.31151739  0.48324982     0.02400
C2789       C  0.86978206  0.35788425  0.94941642     0.12400
C2790       C  0.88007096  0.32008303  0.99348686     0.63000
H2791       H  0.82811340  0.28036008  0.02060276     0.12400
C2792       C  0.76127302  0.31025468  0.47889535     0.55100
H2793       H  0.81493348  0.34799630  0.95140192     0.08200
C2794       C  0.87299673  0.35197664  0.91828396    -0.05600
C2795       C  0.89600879  0.37402702  0.90093803    -0.06300
C2796       C  0.91536445  0.40220486  0.91311799    -0.15900
C2797       C  0.91201288  0.40802975  0.94449579    -0.01500
C2798       C  0.88931653  0.38555298  0.96208820    -0.09100
C2799       C  0.85163263  0.32278311  0.90308527     0.65200
H2800       H  0.89853488  0.36947269  0.87713461     0.10700
C2801       C  0.93147319  0.43783280  0.95933661     0.63600
H2802       H  0.88619089  0.38951788  0.98592366     0.08000
F2803       F  0.76404005  0.33353832  0.46141592    -0.19400
F2804       F  0.75002455  0.31159938  0.50730175    -0.15700
F2805       F  0.74148539  0.28450562  0.46407952    -0.19200
F2806       F  0.89942472  0.34746393  0.00565161    -0.22500
F2807       F  0.89060121  0.31707509  0.96537548    -0.24000
F2808       F  0.87933372  0.29902027  0.01321108    -0.18000
F2809       F  0.92932220  0.45924662  0.94290442    -0.20500
F2810       F  0.96042484  0.44390887  0.95976065    -0.21600
F2811       F  0.92336396  0.43891032  0.98946315    -0.18800
F2812       F  0.85981959  0.32093122  0.87319511    -0.18900
F2813       F  0.82374446  0.31959789  0.90203014    -0.22800
F2814       F  0.85053417  0.29976724  0.91958613    -0.24400
C2815       C  0.65338840  0.16882237  0.98176624    -0.11200
C2816       C  0.65897568  0.14859222  0.96640171     0.11400
C2817       C  0.68732713  0.15134401  0.96822778    -0.03000
C2818       C  0.70928000  0.17433904  0.98605060    -0.05700
C2819       C  0.70368457  0.19457639  0.00143187    -0.16500
C2820       C  0.67539721  0.19198063  0.99932568     0.02400
C2821       C  0.63559559  0.12656230  0.94600164     0.12400
C2822       C  0.69445042  0.13047483  0.95083787     0.63000
H2823       H  0.73118466  0.17703796  0.98776630     0.12400
C2824       C  0.66344542  0.21239235  0.51800725     0.55100
H2825       H  0.63168415  0.16652493  0.97944668     0.08200
C2826       C  0.61335186  0.09881866  0.95665280    -0.05600
C2827       C  0.59307652  0.07862653  0.93510431    -0.06300
C2828       C  0.59323385  0.08649930  0.90420069    -0.15900
C2829       C  0.61503828  0.11455088  0.89391093    -0.01500
C2830       C  0.63602214  0.13413032  0.91503681    -0.09100
C2831       C  0.61013158  0.09132306  0.99070729     0.65200
H2832       H  0.57673057  0.05681408  0.94232493     0.10700
C2833       C  0.61611578  0.12351495  0.86056882     0.63600
H2834       H  0.65305127  0.15564309  0.90758941     0.08000
F2835       F  0.66651465  0.21204978  0.54962408    -0.19400
F2836       F  0.64094211  0.20918939  0.00725344    -0.15700
F2837       F  0.68189034  0.24050584  0.50724307    -0.19200
F2838       F  0.69185146  0.13326288  0.91946925    -0.22500
F2839       F  0.67518318  0.10180117  0.95927535    -0.24000
F2840       F  0.72288224  0.13623406  0.95688171    -0.18000
F2841       F  0.59034801  0.12357176  0.85339386    -0.20500
F2842       F  0.61895113  0.10382127  0.84162833    -0.21600
F2843       F  0.63964968  0.15130017  0.85492159    -0.18800
F2844       F  0.58913912  0.05918396  0.49264692    -0.18900
F2845       F  0.60323776  0.10515234  0.50805572    -0.22800
F2846       F  0.63722530  0.09172905  0.49907093    -0.24400
C2847       C  0.84342855  0.30751560  0.69771475    -0.11200
C2848       C  0.84594491  0.33531740  0.70023953     0.11400
C2849       C  0.82464650  0.34076856  0.68622460    -0.03000
C2850       C  0.80032336  0.31734398  0.67137353    -0.05700
C2851       C  0.79688597  0.28907172  0.67048958    -0.16500
C2852       C  0.81883683  0.28397457  0.68338229     0.02400
C2853       C  0.86969806  0.35750895  0.72007471     0.12400
C2854       C  0.82766254  0.37112472  0.68708069     0.63000
H2855       H  0.78355278  0.32077629  0.66058299     0.12400
C2856       C  0.81597174  0.25373774  0.68245079     0.55100
H2857       H  0.86028913  0.30413562  0.70836923     0.08200
C2858       C  0.86586187  0.35774441  0.75223007    -0.05600
C2859       C  0.88834838  0.38021516  0.76975798    -0.06300
C2860       C  0.91500021  0.40179517  0.75652695    -0.15900
C2861       C  0.91957579  0.40019852  0.72441572    -0.01500
C2862       C  0.89642079  0.37814730  0.70665093    -0.09100
C2863       C  0.83812186  0.33425761  0.76800705     0.65200
H2864       H  0.88503333  0.38099201  0.79427972     0.10700
C2865       C  0.94851800  0.42109551  0.70877929     0.63600
H2866       H  0.89889019  0.37680609  0.68201420     0.08000
F2867       F  0.79189481  0.23437490  0.69967146    -0.19400
F2868       F  0.84075964  0.25409515  0.69440949    -0.15700
F2869       F  0.81220035  0.24369025  0.65234522    -0.19200
F2870       F  0.85376429  0.39118451  0.67318845    -0.22500
F2871       F  0.82779393  0.37981666  0.71722522    -0.24000
F2872       F  0.80468909  0.37164944  0.67164997    -0.18000
F2873       F  0.97187524  0.42148086  0.72431931    -0.20500
F2874       F  0.95227968  0.44910261  0.70840404    -0.21600
F2875       F  0.94920577  0.41275621  0.67861082    -0.18800
F2876       F  0.83914590  0.33847606  0.79961006    -0.18900
F2877       F  0.83494877  0.30683056  0.76271619    -0.22800
F2878       F  0.81355897  0.33462997  0.75666605    -0.24400
C2879       C  0.64685306  0.16988812  0.69044809    -0.11200
C2880       C  0.65496882  0.15484756  0.71143935     0.11400
C2881       C  0.68458512  0.16097938  0.71256547    -0.03000
C2882       C  0.70539375  0.18295287  0.69319274    -0.05700
C2883       C  0.69758832  0.19881446  0.67279266    -0.16500
C2884       C  0.66771336  0.19221657  0.67137718     0.02400
C2885       C  0.63175927  0.13243595  0.73160043     0.12400
C2886       C  0.69421888  0.14455071  0.73425042     0.63000
H2887       H  0.72819254  0.18806923  0.69385515     0.12400
C2888       C  0.65727000  0.20816626  0.65007162     0.55100
H2889       H  0.62385077  0.16408725  0.68928301     0.08200
C2890       C  0.62183565  0.14026602  0.75839962    -0.05600
C2891       C  0.60033508  0.11776559  0.77668183    -0.06300
C2892       C  0.58949818  0.08788529  0.76995641    -0.15900
C2893       C  0.59801855  0.08022299  0.74195986    -0.01500
C2894       C  0.61906195  0.10274272  0.72324523    -0.09100
C2895       C  0.63464302  0.17214710  0.76833008     0.65200
H2896       H  0.59264384  0.12346544  0.79719695     0.10700
C2897       C  0.58581584  0.04872360  0.73163416     0.63600
H2898       H  0.62633636  0.09722382  0.70216659     0.08000
F2899       F  0.63119704  0.20592530  0.66045406    -0.19400
F2900       F  0.65223166  0.19577300  0.62095121    -0.15700
F2901       F  0.67790133  0.23775623  0.64840810    -0.19200
F2902       F  0.67908014  0.11486021  0.72736515    -0.22500
F2903       F  0.68851450  0.14860471  0.76441759    -0.24000
F2904       F  0.72409410  0.15423432  0.73184887    -0.18000
F2905       F  0.60254225  0.03789487  0.74480453    -0.20500
F2906       F  0.58696096  0.04676783  0.69987823    -0.21600
F2907       F  0.55662648  0.03169996  0.74008616    -0.18800
F2908       F  0.62203537  0.17474109  0.79533233    -0.18900
F2909       F  0.62973375  0.18776380  0.74574338    -0.22800
F2910       F  0.66466525  0.18462128  0.77332257    -0.24400
C2911       C  0.72198031  0.72313215  0.15361102     0.03800
C2912       C  0.74570846  0.74591745  0.16949800    -0.12300
C2913       C  0.77033079  0.76676679  0.15347660     0.01300
C2914       C  0.77106339  0.76540314  0.12136708    -0.10800
C2915       C  0.74721166  0.74341080  0.10416791     0.03800
C2916       C  0.72283207  0.72179328  0.12118582    -0.10300
H2917       H  0.74528539  0.74708930  0.19443510     0.09400
H2918       H  0.79130611  0.78173008  0.11048049     0.07000
H2919       H  0.70437834  0.70359236  0.10996473     0.06800
C2920       C  0.72576119  0.72081452  0.01915974     0.03800
C2921       C  0.74921055  0.74394506  0.00371739    -0.12300
C2922       C  0.77148624  0.76744879  0.02026289     0.01300
C2923       C  0.77061722  0.76722399  0.05255209    -0.10800
C2924       C  0.74802137  0.74334343  0.06914354     0.03800
C2925       C  0.72581103  0.71994555  0.05151329    -0.10300
H2926       H  0.74962620  0.74538561  0.47896092     0.09400
H2927       H  0.78781606  0.78667535  0.06404504     0.07000
H2928       H  0.70817326  0.70079875  0.06221277     0.06800
C2929       C  0.74194965  0.96717885  0.15176207     0.03800
C2930       C  0.71813648  0.96613256  0.16778420    -0.12300
C2931       C  0.69422746  0.96477070  0.15159575     0.01300
C2932       C  0.69387574  0.96366192  0.11934072    -0.10800
C2933       C  0.71816810  0.96610145  0.10248268     0.03800
C2934       C  0.74256268  0.96889394  0.11944100    -0.10300
H2935       H  0.71815300  0.96626386  0.19277312     0.09400
H2936       H  0.67418900  0.96078117  0.10801635     0.07000
H2937       H  0.76240362  0.97258080  0.10794702     0.06800
C2938       C  0.73681248  0.95965256  0.01779990     0.03800
C2939       C  0.73755951  0.96006612  0.05029377    -0.12300
C2940       C  0.71786618  0.96563398  0.06765068     0.01300
C2941       C  0.69745012  0.97062205  0.05119663    -0.10800
C2942       C  0.69518355  0.96825659  0.01909519     0.03800
C2943       C  0.71528949  0.96343707  0.00239777    -0.10300
H2944       H  0.75369871  0.95604456  0.06148697     0.09400
H2945       H  0.68285293  0.97644545  0.06282575     0.07000
H2946       H  0.71682868  0.96495495  0.47434786     0.06800
C2947       C  0.98983408  0.73796074  0.15306088     0.03800
C2948       C  0.98549745  0.73559589  0.12103342    -0.12300
C2949       C  0.98883730  0.71462405  0.10368580     0.01300
C2950       C  0.99608834  0.69563079  0.11970096    -0.10800
C2951       C  0.99910961  0.69697018  0.15186065     0.03800
C2952       C  0.99652898  0.71851722  0.16838490    -0.10300
H2953       H  0.97908607  0.75007698  0.11011209     0.09400
H2954       H  0.99918573  0.67931175  0.10772573     0.07000
H2955       H  0.99928460  0.71984993  0.19320974     0.06800
C2956       C  0.97961362  0.73325554  0.02043502     0.03800
C2957       C  0.97376118  0.70721063  0.00516653    -0.12300
C2958       C  0.97451182  0.68448916  0.02123157     0.01300
C2959       C  0.97756301  0.68616390  0.05331470    -0.10800
C2960       C  0.98398660  0.71214598  0.06936466     0.03800
C2961       C  0.98640605  0.73605402  0.05207799    -0.10300
H2962       H  0.97201654  0.70634147  0.47750627     0.09400
H2963       H  0.97581955  0.66727315  0.06509578     0.07000
H2964       H  0.99448994  0.75727327  0.06278728     0.06800
O2965       O  0.51313623  0.91750850  0.37340079    -0.87500
C2966       C  0.57026404  0.56960448  0.29382550     1.12600
O2967       O  0.99050721  0.94903616  0.33463382    -1.35300
O2968       O  0.57886922  0.55144699  0.36938308    -0.88900
O2969       O  0.96902023  0.88903732  0.36615997    -0.89600
O2970       O  0.95902235  0.94656153  0.39917479    -0.78400
O2971       O  0.54581927  0.98443776  0.36621965    -1.00500
C2972       C  0.98230222  0.52821954  0.39339679     1.22600
O2973       O  0.95692320  0.97678007  0.33478123    -1.35400
Mn2974     Mn  0.98896976  0.97923783  0.30125835     1.82100
O2975       O  0.98434413  0.50641253  0.40146256    -0.77500
O2976       O  0.54907604  0.57028381  0.37639509    -0.86900
C2977       C  0.98800920  0.53232668  0.28094053     1.13700
C2978       C  0.57229219  0.56902634  0.38257020     1.08400
O2979       O  0.95896291  0.94839972  0.26912951    -0.78400
O2980       O  0.51828368  0.51244515  0.33804095    -1.32100
O2981       O  0.93354406  0.92060692  0.30519543    -0.97700
C2982       C  0.89785412  0.97201874  0.37728480     1.07100
Mn2983     Mn  0.51763114  0.55239205  0.34055844     1.48600
O2984       O  0.89667908  0.94816472  0.36911431    -0.86900
Mn2985     Mn  0.95289597  0.90646474  0.33324129     1.49600
O2986       O  0.51479200  0.91622722  0.30491469    -0.90700
C2987       C  0.54155120  0.98557147  0.39373866     1.20300
C2988       C  0.99457783  0.89539499  0.29066290     1.12400
Mn2989     Mn  0.98850207  0.97851122  0.36837217     1.81000
O2990       O  0.98598071  0.53405068  0.30855586    -0.95900
Mn2991     Mn  0.52765261  0.94922030  0.33865809     1.49300
C2992       C  0.99351315  0.89496656  0.37852408     1.08900
Mn2993     Mn  0.95148087  0.51366362  0.33497171     1.49900
C2994       C  0.90060107  0.97292959  0.28905455     1.11800
O2995       O  0.93265469  0.91858967  0.36310735    -1.01700
O2996       O  0.55112464  0.57363739  0.30768445    -0.91400
C2997       C  0.93687708  0.92298939  0.39081461     1.23100
O2998       O  0.98317011  0.53293967  0.36584760    -1.02100
O2999       O  0.57515165  0.54878259  0.30055776    -0.89500
O3000       O  0.92030304  0.49761278  0.29871676    -0.89100
O3001       O  0.96922194  0.89118679  0.29803561    -0.89100
Mn3002     Mn  0.56116370  0.51780636  0.33649307     1.47900
O3003       O  0.98840736  0.50989261  0.27112790    -0.77600
C3004       C  0.93695973  0.92489202  0.27754785     1.16200
O3005       O  0.51739507  0.98325579  0.40138968    -0.76300
O3006       O  0.51961623  0.98147254  0.27071025    -0.70900
Mn3007     Mn  0.91649165  0.93609473  0.33457896     1.51100
O3008       O  0.91757794  0.49717574  0.36699699    -0.88300
O3009       O  0.54597649  0.98222009  0.30830230    -0.95800
O3010       O  0.89681965  0.94911512  0.30074827    -0.90800
C3011       C  0.54202241  0.98073993  0.28024934     1.13900
C3012       C  0.00037741  0.64136731  0.47249480    -0.11200
C3013       C  0.97487776  0.61370269  0.47210499     0.11400
C3014       C  0.94998707  0.60881453  0.48942821    -0.03000
C3015       C  0.95041651  0.63221302  0.00434875    -0.05700
C3016       C  0.97537341  0.66040141  0.00427762    -0.16500
C3017       C  0.00122107  0.66518230  0.48821110     0.02400
C3018       C  0.97480635  0.59056787  0.45248479     0.12400
C3019       C  0.92373201  0.57800670  0.99027373     0.63000
H3020       H  0.93114396  0.62886415  0.01697341     0.12400
C3021       C  0.52823062  0.69376106  0.49198956     0.55100
H3022       H  0.51604260  0.64353364  0.46099722     0.08200
C3023       C  0.96662608  0.58765070  0.42106008    -0.05600
C3024       C  0.96813950  0.56603818  0.40331976    -0.06300
C3025       C  0.97882127  0.54819119  0.41551125    -0.15900
C3026       C  0.98740187  0.55162250  0.44712425    -0.01500
C3027       C  0.98487930  0.57263887  0.46512320    -0.09100
C3028       C  0.95764613  0.60822249  0.40602069     0.65200
H3029       H  0.96173469  0.56358441  0.37926133     0.10700
C3030       C  0.50096542  0.53695798  0.46238602     0.63600
H3031       H  0.48972796  0.57673863  0.49063413     0.08000
F3032       F  0.52598879  0.71574532  0.47695111    -0.19400
F3033       F  0.55089020  0.69124788  0.47857285    -0.15700
F3034       F  0.53576128  0.70173907  0.52253725    -0.19200
F3035       F  0.93215053  0.55891485  0.00239779    -0.22500
F3036       F  0.91227483  0.56646262  0.46413892    -0.24000
F3037       F  0.90202080  0.57735744  0.00895870    -0.18000
F3038       F  0.51173051  0.54705383  0.49178634    -0.20500
F3039       F  0.52446048  0.54135910  0.44426837    -0.21600
F3040       F  0.48093115  0.50726664  0.46415488    -0.18800
F3041       F  0.94945693  0.60086342  0.37547593    -0.18900
F3042       F  0.98112047  0.63668060  0.40700399    -0.22800
F3043       F  0.93403623  0.60723536  0.42134138    -0.24400
C3044       C  0.97243734  0.79837744  0.48756995    -0.11200
C3045       C  0.98874719  0.80528781  0.46030315     0.11400
C3046       C  0.49728135  0.78824539  0.45409480    -0.03000
C3047       C  0.49672556  0.76750654  0.47493529    -0.05700
C3048       C  0.98376840  0.75970669  0.49864740    -0.16500
C3049       C  0.96821674  0.77469890  0.50607608     0.02400
C3050       C  0.98927368  0.82839329  0.44035917     0.12400
C3051       C  0.51358291  0.79331129  0.42373583     0.63000
H3052       H  0.50926821  0.75667678  0.46989214     0.12400
C3053       C  0.94662077  0.76586433  0.03898769     0.55100
H3054       H  0.96208957  0.81115834  0.49372662     0.08200
C3055       C  0.96413634  0.82400551  0.42361938    -0.05600
C3056       C  0.96638123  0.84704487  0.40534643    -0.06300
C3057       C  0.99341901  0.87333056  0.40107946    -0.15900
C3058       C  0.01907002  0.87660967  0.41660024    -0.01500
C3059       C  0.01585381  0.85479106  0.43749312    -0.09100
C3060       C  0.93545121  0.79467819  0.42384197     0.65200
H3061       H  0.94687208  0.84396371  0.39329113     0.10700
C3062       C  0.54429701  0.90037406  0.41300794     0.63600
H3063       H  0.52767564  0.85570543  0.45318859     0.08000
F3064       F  0.92700464  0.77632904  0.52824141    -0.19400
F3065       F  0.96351759  0.77867924  0.06507608    -0.15700
F3066       F  0.93039726  0.73571938  0.04272717    -0.19200
F3067       F  0.53797970  0.82116642  0.42316614    -0.22500
F3068       F  0.49502778  0.79020239  0.39942736    -0.24000
F3069       F  0.52327496  0.77334422  0.41931077    -0.18000
F3070       F  0.05711291  0.90305973  0.38015118    -0.20500
F3071       F  0.56496237  0.89777370  0.43071854    -0.21600
F3072       F  0.54606567  0.92663620  0.42068156    -0.18800
F3073       F  0.91491511  0.79420158  0.40323026    -0.18900
F3074       F  0.92300185  0.78908786  0.45280823    -0.22800
F3075       F  0.94097387  0.77237500  0.41563352    -0.24400
C3076       C  0.98939035  0.60164403  0.25050290    -0.11200
C3077       C  0.99696177  0.60140654  0.21976550     0.11400
C3078       C  0.49803893  0.58202765  0.21141775    -0.03000
C3079       C  0.49582728  0.55980371  0.23135452    -0.05700
C3080       C  0.99123090  0.55680087  0.26064491    -0.16500
C3081       C  0.98649224  0.58001129  0.27142791     0.02400
C3082       C  0.99795447  0.62475141  0.19967407     0.12400
C3083       C  0.50423665  0.58114377  0.17743160     0.63000
H3084       H  0.49773218  0.54164943  0.22207214     0.12400
C3085       C  0.97788140  0.58240841  0.30446302     0.55100
H3086       H  0.98543049  0.61913557  0.25782481     0.08200
C3087       C  0.97198836  0.62193910  0.18601362    -0.05600
C3088       C  0.97377698  0.64593287  0.16990382    -0.06300
C3089       C  0.00017831  0.67283255  0.16830078    -0.15900
C3090       C  0.52240506  0.67773046  0.18222315    -0.01500
C3091       C  0.52145365  0.65380602  0.19794534    -0.09100
C3092       C  0.94230306  0.59411443  0.18934364     0.65200
H3093       H  0.95423647  0.64424926  0.15915180     0.10700
C3094       C  0.55171886  0.70507120  0.17585382     0.63600
H3095       H  0.54169162  0.65481647  0.20562994     0.08000
F3096       F  0.97338775  0.60608335  0.30853332    -0.19400
F3097       F  0.00010239  0.58629722  0.32464295    -0.15700
F3098       F  0.95184339  0.55744178  0.31208974    -0.19200
F3099       F  0.53111341  0.60535677  0.17026695    -0.22500
F3100       F  0.99327422  0.57728900  0.15555195    -0.24000
F3101       F  0.50539302  0.55610917  0.16974010    -0.18000
F3102       F  0.55218971  0.72922987  0.18933449    -0.20500
F3103       F  0.55551482  0.70941622  0.14439496    -0.21600
F3104       F  0.57521394  0.70286805  0.18759758    -0.18800
F3105       F  0.92023452  0.59559946  0.17307856    -0.18900
F3106       F  0.93428699  0.58959332  0.22003698    -0.22800
F3107       F  0.94400490  0.57036452  0.17825250    -0.24400
C3108       C  0.50785602  0.84364866  0.24872662    -0.11200
C3109       C  0.99336925  0.83330415  0.22392137     0.11400
C3110       C  0.97256870  0.84309710  0.22215440    -0.03000
C3111       C  0.97427766  0.86386379  0.24392838    -0.05700
C3112       C  0.99621072  0.87546024  0.26704704    -0.16500
C3113       C  0.51024874  0.86419690  0.27107247     0.02400
C3114       C  0.99176943  0.80956609  0.20367096     0.12400
C3115       C  0.94840038  0.83142871  0.19769906     0.63000
H3116       H  0.95782790  0.87064327  0.24348946     0.12400
C3117       C  0.53051724  0.87023576  0.29870624     0.55100
H3118       H  0.52065636  0.83266148  0.25107177     0.08200
C3119       C  0.50946260  0.81861918  0.18079873    -0.05600
C3120       C  0.50841295  0.79472167  0.16482137    -0.06300
C3121       C  0.98898010  0.76199004  0.17019198    -0.15900
C3122       C  0.96670333  0.75677900  0.19181829    -0.01500
C3123       C  0.96912304  0.78066013  0.20901111    -0.09100
C3124       C  0.53490941  0.84952075  0.17546785     0.65200
H3125       H  0.52599857  0.79829701  0.14917612     0.10700
C3126       C  0.93994201  0.72644302  0.19581890     0.63600
H3127       H  0.95337162  0.77690024  0.22705047     0.08000
F3128       F  0.55302389  0.89918390  0.29846308    -0.19400
F3129       F  0.54337668  0.85266822  0.29851126    -0.15700
F3130       F  0.51458366  0.86467875  0.32568387    -0.19200
F3131       F  0.92837951  0.80218493  0.20309602    -0.22500
F3132       F  0.96056722  0.83415761  0.16880201    -0.24000
F3133       F  0.93306661  0.84664287  0.19765572    -0.18000
F3134       F  0.94820981  0.70750226  0.20853840    -0.20500
F3135       F  0.92672849  0.71558842  0.16744016    -0.21600
F3136       F  0.91914002  0.72714812  0.21494790    -0.18800
F3137       F  0.55270065  0.85036526  0.15145735    -0.18900
F3138       F  0.55215671  0.85981752  0.20176002    -0.22800
F3139       F  0.52415428  0.86810114  0.16821943    -0.24400
C3140       C  0.83286415  0.97650004  0.41098501    -0.11200
C3141       C  0.82826670  0.96133433  0.43882385     0.11400
C3142       C  0.84640932  0.94922940  0.44638630    -0.03000
C3143       C  0.86874223  0.95294124  0.42561703    -0.05700
C3144       C  0.87472124  0.96994673  0.39878020    -0.16500
C3145       C  0.85642703  0.98198091  0.39130808     0.02400
C3146       C  0.80526914  0.96003272  0.46015648     0.12400
C3147       C  0.84227490  0.42985224  0.47374777     0.63000
H3148       H  0.87811094  0.43838271  0.42706456     0.12400
C3149       C  0.86143281  0.00027772  0.36252118     0.55100
H3150       H  0.81829084  0.98496825  0.40534190     0.08200
C3151       C  0.81576930  0.48523315  0.48703033    -0.05600
C3152       C  0.79178553  0.48213857  0.50436897    -0.06300
C3153       C  0.75975277  0.95679344  0.49802054    -0.15900
C3154       C  0.75508075  0.93701495  0.97703469    -0.01500
C3155       C  0.77866677  0.93337701  0.46359871    -0.09100
C3156       C  0.84649625  0.51054606  0.49347514     0.65200
H3157       H  0.79531547  0.49788038  0.52244009     0.10700
C3158       C  0.72592176  0.90867306  0.97338468     0.63600
H3159       H  0.77574423  0.91432545  0.45085301     0.08000
F3160       F  0.88799348  0.02628293  0.36508034    -0.19400
F3161       F  0.83940403  0.00729080  0.35812986    -0.15700
F3162       F  0.86193516  0.98491055  0.33682089    -0.19200
F3163       F  0.80791656  0.90906128  0.97026003    -0.22500
F3164       F  0.82331580  0.43049718  0.49543881    -0.24000
F3165       F  0.86873690  0.43766292  0.48842433    -0.18000
F3166       F  0.73102800  0.88521877  0.97158605    -0.20500
F3167       F  0.71227742  0.90972625  0.94642904    -0.21600
F3168       F  0.70710265  0.90347779  0.99785004    -0.18800
F3169       F  0.84720335  0.52665254  0.51911736    -0.18900
F3170       F  0.85582610  0.52907059  0.46836387    -0.22800
F3171       F  0.86577047  0.50008405  0.49857375    -0.24400
C3172       C  0.58279820  0.98086257  0.46476433    -0.11200
C3173       C  0.61093500  0.99123617  0.45218707     0.11400
C3174       C  0.62048093  0.50656804  0.42240722    -0.03000
C3175       C  0.59707411  0.50523948  0.40522093    -0.05700
C3176       C  0.56509246  0.99017844  0.41638687    -0.16500
C3177       C  0.55975810  0.98084362  0.44765359     0.02400
C3178       C  0.63260471  0.98618467  0.46938456     0.12400
C3179       C  0.65032747  0.51746049  0.40735166     0.63000
H3180       H  0.60100241  0.51301817  0.38167708     0.12400
C3181       C  0.52984958  0.96957895  0.46257972     0.55100
H3182       H  0.57887328  0.97196303  0.48786741     0.08200
C3183       C  0.65924824  0.51286444  0.48941388    -0.05600
C3184       C  0.68678662  0.51077080  0.99262862    -0.06300
C3185       C  0.67172529  0.97144268  0.00336559    -0.15900
C3186       C  0.65071134  0.95189477  0.47970743    -0.01500
C3187       C  0.63105759  0.95895889  0.46492046    -0.09100
C3188       C  0.67675806  0.54770385  0.96742049     0.65200
H3189       H  0.70935147  0.52842843  0.99566808     0.10700
C3190       C  0.64641771  0.92120890  0.47597063     0.63600
H3191       H  0.61418582  0.94318677  0.44956976     0.08000
F3192       F  0.52978758  0.96150337  0.49295915    -0.19400
F3193       F  0.50866676  0.94524461  0.44670497    -0.15700
F3194       F  0.52248834  0.99146859  0.46236553    -0.19200
F3195       F  0.65573475  0.49433247  0.40410537    -0.22500
F3196       F  0.67232507  0.53914663  0.42529521    -0.24000
F3197       F  0.65156200  0.52911510  0.37841946    -0.18000
F3198       F  0.61968010  0.90221548  0.46197717    -0.20500
F3199       F  0.64686501  0.90970890  0.50451608    -0.21600
F3200       F  0.66858521  0.92228133  0.45785740    -0.18800
F3201       F  0.70080023  0.55710188  0.94814675    -0.18900
F3202       F  0.64851492  0.03474499  0.02934801    -0.22800
F3203       F  0.63997384  0.54601874  0.48375571    -0.24400
C3204       C  0.86527832  0.98429118  0.21691493    -0.11200
C3205       C  0.83533467  0.96774031  0.22451359     0.11400
C3206       C  0.82684579  0.95088247  0.25185556    -0.03000
C3207       C  0.84897312  0.95241336  0.27160881    -0.05700
C3208       C  0.87907269  0.97071379  0.26523795    -0.16500
C3209       C  0.88741682  0.98630170  0.23704929     0.02400
C3210       C  0.81322846  0.96929602  0.20416674     0.12400
C3211       C  0.79331130  0.42548868  0.26043557     0.63000
H3212       H  0.84249110  0.43625539  0.29305240     0.12400
C3213       C  0.91944517  0.00573993  0.22870699     0.55100
H3214       H  0.87120487  0.99664300  0.19562848     0.08200
C3215       C  0.80706402  0.99264674  0.20644780    -0.05600
C3216       C  0.78387957  0.99134321  0.18857941    -0.06300
C3217       C  0.76677174  0.96744972  0.16890610    -0.15900
C3218       C  0.77303534  0.94407508  0.16667408    -0.01500
C3219       C  0.79682875  0.94590821  0.18380834    -0.09100
C3220       C  0.81700156  0.51250803  0.23403890     0.65200
H3221       H  0.77872008  0.00891569  0.18996889     0.10700
C3222       C  0.75356841  0.91640333  0.14804314     0.63600
H3223       H  0.80215688  0.92844890  0.18245027     0.08000
F3224       F  0.93096191  0.03076338  0.24676072    -0.19400
F3225       F  0.92282136  0.01399744  0.19806565    -0.15700
F3226       F  0.93495270  0.99109201  0.23366294    -0.19200
F3227       F  0.77998524  0.91042550  0.23840569    -0.22500
F3228       F  0.77760969  0.44014403  0.26365627    -0.24000
F3229       F  0.79065798  0.41052475  0.28755306    -0.18000
F3230       F  0.75542011  0.92276354  0.11698810    -0.20500
F3231       F  0.72458651  0.90449903  0.15743794    -0.21600
F3232       F  0.76178588  0.89526433  0.15197709    -0.18800
F3233       F  0.80449129  0.53037217  0.23492704    -0.18900
F3234       F  0.85390691  0.03361936  0.21876436    -0.22800
F3235       F  0.81473520  0.50085644  0.26311357    -0.24400
C3236       C  0.62180572  0.94347917  0.19238162    -0.11200
C3237       C  0.62566265  0.97122840  0.19983515     0.11400
C3238       C  0.65202125  0.99690927  0.19116472    -0.03000
C3239       C  0.67380815  0.99380686  0.17530794    -0.05700
C3240       C  0.67005531  0.96604624  0.16815854    -0.16500
C3241       C  0.64350869  0.94045358  0.17623931     0.02400
C3242       C  0.60321958  0.97270964  0.21960571     0.12400
C3243       C  0.65135169  0.52380368  0.18915500     0.63000
H3244       H  0.69423366  0.01308732  0.16868915     0.12400
C3245       C  0.63835809  0.91018459  0.16788204     0.55100
H3246       H  0.60176249  0.92416350  0.19974471     0.08200
C3247       C  0.57625756  0.96919571  0.20809700    -0.05600
C3248       C  0.55700654  0.97222377  0.22852623    -0.06300
C3249       C  0.56347486  0.97769530  0.26011370    -0.15900
C3250       C  0.59020505  0.97970278  0.27187120    -0.01500
C3251       C  0.60942498  0.97730220  0.25107316    -0.09100
C3252       C  0.56340921  0.45494854  0.17595560     0.65200
H3253       H  0.53516269  0.46698310  0.22181088     0.10700
C3254       C  0.59924356  0.98439861  0.30593402     0.63600
H3255       H  0.62986195  0.97900087  0.25916004     0.08000
F3256       F  0.61144826  0.88814785  0.17846470    -0.19400
F3257       F  0.66031161  0.90613895  0.18077044    -0.15700
F3258       F  0.63871028  0.90751806  0.13618544    -0.19200
F3259       F  0.66060500  0.03184704  0.23065203    -0.22500
F3260       F  0.62656684  0.52380502  0.17793501    -0.24000
F3261       F  0.67558359  0.54512525  0.17348732    -0.18000
F3262       F  0.62623318  0.98610007  0.31099367    -0.20500
F3263       F  0.57870302  0.96110151  0.32322957    -0.21600
F3264       F  0.60179505  0.01046219  0.31652037    -0.18800
F3265       F  0.53632559  0.45284205  0.17023854    -0.18900
F3266       F  0.56401041  0.93427146  0.16805526    -0.22800
F3267       F  0.58325253  0.47388250  0.15457443    -0.24400
C3268       C  0.81770839  0.83539265  0.46686089    -0.11200
C3269       C  0.84515263  0.83680409  0.46984163     0.11400
C3270       C  0.84860304  0.81843411  0.49128163    -0.03000
C3271       C  0.82359786  0.79740826  0.50731613    -0.05700
C3272       C  0.79569112  0.79263685  0.00373051    -0.16500
C3273       C  0.79094510  0.81328646  0.98737605     0.02400
C3274       C  0.86982166  0.85786552  0.45009694     0.12400
C3275       C  0.87859850  0.82132814  0.49739167     0.63000
H3276       H  0.82551901  0.78256321  0.52323244     0.12400
C3277       C  0.76111336  0.81169964  0.98759468     0.55100
H3278       H  0.81589383  0.85038125  0.45105599     0.08200
C3279       C  0.87278166  0.85106608  0.41922395    -0.05600
C3280       C  0.89550739  0.87274558  0.40126084    -0.06300
C3281       C  0.91539000  0.90096075  0.41301712    -0.15900
C3282       C  0.91291088  0.90723808  0.44450430    -0.01500
C3283       C  0.88986765  0.88551365  0.46229858    -0.09100
C3284       C  0.85193093  0.82103942  0.40527880     0.65200
H3285       H  0.89768356  0.86774578  0.37751289     0.10700
C3286       C  0.93401834  0.93653186  0.45955358     0.63600
H3287       H  0.88704948  0.88995427  0.48606024     0.08000
F3288       F  0.76226943  0.83597290  0.97371116    -0.19400
F3289       F  0.75185853  0.81052715  0.01767053    -0.15700
F3290       F  0.74055766  0.78693347  0.97184152    -0.19200
F3291       F  0.89761903  0.84891343  0.50933961    -0.22500
F3292       F  0.89025668  0.81759661  0.47034629    -0.24000
F3293       F  0.87689618  0.80067401  0.51832849    -0.18000
F3294       F  0.93313304  0.95912528  0.44419731    -0.20500
F3295       F  0.96230474  0.94087439  0.45880333    -0.21600
F3296       F  0.92712038  0.93768911  0.49012678    -0.18800
F3297       F  0.85897858  0.81887852  0.37500112    -0.18900
F3298       F  0.82329628  0.81589624  0.40570587    -0.22800
F3299       F  0.85333709  0.79937124  0.42198782    -0.24400
C3300       C  0.65194078  0.66872384  0.48553517    -0.11200
C3301       C  0.65918253  0.65047181  0.46854819     0.11400
C3302       C  0.68842548  0.65543188  0.46917855    -0.03000
C3303       C  0.70976178  0.67905164  0.48675592    -0.05700
C3304       C  0.70262184  0.69758036  0.50334079    -0.16500
C3305       C  0.67321487  0.69227497  0.50323489     0.02400
C3306       C  0.63648465  0.62863107  0.44747592     0.12400
C3307       C  0.69719838  0.63634867  0.45076975     0.63000
H3308       H  0.73239977  0.68363951  0.48727665     0.12400
C3309       C  0.66629159  0.71646060  0.01657951     0.55100
H3310       H  0.62951798  0.66469491  0.48420035     0.08200
C3311       C  0.61397072  0.60073578  0.45741832    -0.05600
C3312       C  0.59348803  0.58140587  0.43547532    -0.06300
C3313       C  0.59393064  0.59009456  0.40483372    -0.15900
C3314       C  0.61649587  0.61803442  0.39509930    -0.01500
C3315       C  0.63738636  0.63692054  0.41671279    -0.09100
C3316       C  0.61121852  0.59185445  0.49104754     0.65200
H3317       H  0.57700041  0.55944718  0.44209700     0.10700
C3318       C  0.61846147  0.62778116  0.36194611     0.63600
H3319       H  0.65463671  0.65854842  0.40984699     0.08000
F3320       F  0.66810307  0.71350189  0.04802691    -0.19400
F3321       F  0.63555067  0.70448166  0.51499500    -0.15700
F3322       F  0.68637371  0.74496091  0.00817986    -0.19200
F3323       F  0.69529968  0.64057135  0.41960163    -0.22500
F3324       F  0.67863950  0.60708294  0.45757289    -0.24000
F3325       F  0.72582575  0.64298199  0.45735088    -0.18000
F3326       F  0.59354317  0.62943388  0.35477311    -0.20500
F3327       F  0.62033659  0.60780086  0.34257163    -0.21600
F3328       F  0.64299945  0.65508826  0.35691467    -0.18800
F3329       F  0.58541706  0.56811849  0.99101705    -0.18900
F3330       F  0.60567173  0.61550064  0.00446031    -0.22800
F3331       F  0.63466309  0.59595113  0.99443974    -0.24400
C3332       C  0.84258417  0.80826783  0.19741816    -0.11200
C3333       C  0.84530469  0.83616984  0.19987806     0.11400
C3334       C  0.82380608  0.84160863  0.18630310    -0.03000
C3335       C  0.79941954  0.81825152  0.17140530    -0.05700
C3336       C  0.79604815  0.79001798  0.17019829    -0.16500
C3337       C  0.81788974  0.78479112  0.18312546     0.02400
C3338       C  0.86922777  0.85838699  0.21958892     0.12400
C3339       C  0.82673534  0.87192461  0.18763218     0.63000
H3340       H  0.78263638  0.82173348  0.16073285     0.12400
C3341       C  0.81464505  0.75437724  0.18238024     0.55100
H3342       H  0.85938386  0.80476826  0.20803048     0.08200
C3343       C  0.86527749  0.85902856  0.25167372    -0.05600
C3344       C  0.88774743  0.88161643  0.26908530    -0.06300
C3345       C  0.91467938  0.90272381  0.25593942    -0.15900
C3346       C  0.91929987  0.90088992  0.22388442    -0.01500
C3347       C  0.89605329  0.87884454  0.20613694    -0.09100
C3348       C  0.83764209  0.83553860  0.26759638     0.65200
H3349       H  0.88434364  0.88265208  0.29354758     0.10700
C3350       C  0.94847716  0.92138522  0.20841907     0.63600
H3351       H  0.89857793  0.87728858  0.18154554     0.08000
F3352       F  0.79052314  0.73532608  0.19975602    -0.19400
F3353       F  0.83930939  0.75447964  0.19429681    -0.15700
F3354       F  0.81062166  0.74407433  0.15235609    -0.19200
F3355       F  0.85229408  0.89194906  0.17285809    -0.22500
F3356       F  0.82794881  0.88079812  0.21790527    -0.24000
F3357       F  0.80315586  0.87228457  0.17341025    -0.18000
F3358       F  0.97132757  0.92060489  0.22372991    -0.20500
F3359       F  0.95330449  0.94978966  0.20874075    -0.21600
F3360       F  0.94888344  0.91345450  0.17802173    -0.18800
F3361       F  0.83806603  0.84075991  0.29895112    -0.18900
F3362       F  0.83556389  0.80840341  0.26372155    -0.22800
F3363       F  0.81274165  0.83454664  0.25524643    -0.24400
C3364       C  0.64676921  0.67473118  0.19058993    -0.11200
C3365       C  0.65331194  0.65772566  0.21053616     0.11400
C3366       C  0.68224308  0.66181981  0.21133228    -0.03000
C3367       C  0.70366248  0.68270213  0.19154046    -0.05700
C3368       C  0.69723108  0.69991202  0.17167494    -0.16500
C3369       C  0.66851407  0.69640737  0.17162074     0.02400
C3370       C  0.62950112  0.63575722  0.23049219     0.12400
C3371       C  0.69057038  0.64462429  0.23343906     0.63000
H3372       H  0.72589134  0.68612135  0.19168541     0.12400
C3373       C  0.66124595  0.71637515  0.15283691     0.55100
H3374       H  0.62448447  0.67114842  0.19038838     0.08200
C3375       C  0.62117372  0.64376149  0.25829373    -0.05600
C3376       C  0.60056678  0.62136771  0.27739138    -0.06300
C3377       C  0.58881683  0.59146972  0.27012643    -0.15900
C3378       C  0.59547900  0.58370071  0.24110903    -0.01500
C3379       C  0.61573085  0.60610259  0.22172597    -0.09100
C3380       C  0.63419291  0.67572922  0.26792784     0.65200
H3381       H  0.59403133  0.62712377  0.29868449     0.10700
C3382       C  0.58200095  0.55207737  0.23066296     0.63600
H3383       H  0.62192740  0.60053927  0.19997793     0.08000
F3384       F  0.63317722  0.71147878  0.15900682    -0.19400
F3385       F  0.66266404  0.71154040  0.12173870    -0.15700
F3386       F  0.68114312  0.74543637  0.15981989    -0.19200
F3387       F  0.67490761  0.61502104  0.22620977    -0.22500
F3388       F  0.68422941  0.64864439  0.26338734    -0.24000
F3389       F  0.72034937  0.65360636  0.23208434    -0.18000
F3390       F  0.59634558  0.53950607  0.24550395    -0.20500
F3391       F  0.58485577  0.54995341  0.19916558    -0.21600
F3392       F  0.55221939  0.53675792  0.23741404    -0.18800
F3393       F  0.62503362  0.67844297  0.29706775    -0.18900
F3394       F  0.62537790  0.68996625  0.24734766    -0.22800
F3395       F  0.66466469  0.68951992  0.26833108    -0.24400
C3396       C  0.72020385  0.72742326  0.65252705     0.03800
C3397       C  0.74425191  0.74945167  0.66890108    -0.12300
C3398       C  0.76930743  0.77025585  0.65318262     0.01300
C3399       C  0.77035900  0.76933201  0.62105845    -0.10800
C3400       C  0.74628157  0.74806026  0.60375564     0.03800
C3401       C  0.72124336  0.72699197  0.62020532    -0.10300
H3402       H  0.74370269  0.75005011  0.69386183     0.09400
H3403       H  0.79067326  0.78511600  0.61017608     0.07000
H3404       H  0.70234831  0.70964274  0.60849206     0.06800
C3405       C  0.72655258  0.72277986  0.52002605     0.03800
C3406       C  0.74888092  0.74638921  0.50387194    -0.12300
C3407       C  0.77037615  0.77107401  0.51984258     0.01300
C3408       C  0.76903689  0.77204567  0.55214108    -0.10800
C3409       C  0.74755981  0.74767426  0.56904230     0.03800
C3410       C  0.72715879  0.72274410  0.55217582    -0.10300
H3411       H  0.74975556  0.74396783  0.97874048     0.09400
H3412       H  0.78509377  0.79207901  0.56344915     0.07000
H3413       H  0.71136944  0.70274258  0.56343573     0.06800
C3414       C  0.73836443  0.96399548  0.64919546     0.03800
C3415       C  0.71423310  0.96285421  0.66468701    -0.12300
C3416       C  0.69036782  0.96121201  0.64805595     0.01300
C3417       C  0.69037273  0.95994695  0.61578692    -0.10800
C3418       C  0.71497221  0.96259011  0.59939807     0.03800
C3419       C  0.73927207  0.96556936  0.61681677    -0.10300
H3420       H  0.71398340  0.96317865  0.68966777     0.09400
H3421       H  0.67081817  0.95691569  0.60399593     0.07000
H3422       H  0.75932978  0.96954975  0.60559997     0.06800
C3423       C  0.73572366  0.95769745  0.51528789     0.03800
C3424       C  0.73510018  0.95677933  0.54769822    -0.12300
C3425       C  0.71528945  0.96253468  0.56453318     0.01300
C3426       C  0.69576437  0.96854635  0.54754703    -0.10800
C3427       C  0.69510562  0.96789501  0.51522595     0.03800
C3428       C  0.71570609  0.96328387  0.49925072    -0.10300
H3429       H  0.75042781  0.95183181  0.55930084     0.09400
H3430       H  0.68095548  0.97421666  0.55897849     0.07000
H3431       H  0.71470246  0.96342542  0.97741926     0.06800
C3432       C  0.98754835  0.73967514  0.65036986     0.03800
C3433       C  0.98485552  0.73792187  0.61809303    -0.12300
C3434       C  0.98728397  0.71608900  0.60129346     0.01300
C3435       C  0.99242627  0.69598255  0.61797950    -0.10800
C3436       C  0.99394005  0.69676449  0.65018406     0.03800
C3437       C  0.99186269  0.71882556  0.66634368    -0.10300
H3438       H  0.98009837  0.75334231  0.60657529     0.09400
H3439       H  0.99526091  0.67932663  0.60649056     0.07000
H3440       H  0.99325197  0.71957100  0.69129872     0.06800
C3441       C  0.98134348  0.73477163  0.51711976     0.03800
C3442       C  0.97513946  0.70850895  0.50230165    -0.12300
C3443       C  0.97463697  0.68557981  0.51902783     0.01300
C3444       C  0.97665943  0.68732496  0.55117332    -0.10800
C3445       C  0.98353751  0.71365161  0.56681117     0.03800
C3446       C  0.98730362  0.73773945  0.54894623    -0.10300
H3447       H  0.97008445  0.70513788  0.98044985     0.09400
H3448       H  0.97373249  0.66816345  0.56327936     0.07000
H3449       H  0.99567854  0.75914869  0.55933858     0.06800
O3450       O  0.51274568  0.91511168  0.87209481    -0.87500
C3451       C  0.56993461  0.56748317  0.78881247     1.12600
O3452       O  0.98974228  0.94939150  0.83623597    -1.35300
O3453       O  0.57863691  0.55211262  0.86629001    -0.88900
O3454       O  0.96739855  0.88923313  0.86884479    -0.89600
O3455       O  0.95684964  0.94772140  0.89985370    -0.78400
O3456       O  0.54533080  0.98108270  0.86632549    -1.00500
C3457       C  0.98429883  0.53054083  0.89057245     1.22600
O3458       O  0.95596180  0.97718679  0.83430600    -1.35400
Mn3459     Mn  0.98884681  0.97934636  0.80199795     1.82100
O3460       O  0.98626142  0.50874200  0.89882679    -0.77500
O3461       O  0.54907214  0.57161830  0.86984923    -0.86900
C3462       C  0.98894112  0.53316200  0.77793764     1.13700
C3463       C  0.57196857  0.57052010  0.87747426     1.08400
O3464       O  0.95946281  0.94839081  0.76989864    -0.78400
O3465       O  0.51829723  0.51180765  0.83524050    -1.32100
O3466       O  0.93299341  0.92096844  0.80580090    -0.97700
C3467       C  0.89656344  0.97353785  0.87541849     1.07100
Mn3468     Mn  0.51751675  0.55193660  0.83515339     1.48600
O3469       O  0.89520047  0.94935261  0.86813508    -0.86900
Mn3470     Mn  0.95202284  0.90690640  0.83481903     1.49600
O3471       O  0.51360073  0.91403753  0.80386495    -0.90700
C3472       C  0.54062488  0.98155436  0.89386292     1.20300
C3473       C  0.99449395  0.89568844  0.79301217     1.12400
Mn3474     Mn  0.98695508  0.97918236  0.86891809     1.81000
O3475       O  0.98713640  0.53496459  0.80557246    -0.95900
Mn3476     Mn  0.52715460  0.94716199  0.83769569     1.49300
C3477       C  0.99173173  0.89477453  0.88147516     1.08900
Mn3478     Mn  0.95264743  0.51528631  0.83238047     1.49900
C3479       C  0.89941305  0.97252530  0.78719616     1.11800
O3480       O  0.93125527  0.91953679  0.86365605    -1.01700
O3481       O  0.55025050  0.57141676  0.80149784    -0.91400
C3482       C  0.93464807  0.92426338  0.89137549     1.23100
O3483       O  0.98485175  0.53505683  0.86293733    -1.02100
O3484       O  0.57533838  0.54732258  0.79721270    -0.89500
O3485       O  0.92130167  0.49876757  0.79602893    -0.89100
O3486       O  0.96908465  0.89146758  0.80033913    -0.89100
Mn3487     Mn  0.56112504  0.51713728  0.83429703     1.47900
O3488       O  0.98927710  0.51058856  0.76839532    -0.77600
C3489       C  0.93678235  0.92544596  0.77817619     1.16200
O3490       O  0.51676925  0.97994067  0.90144486    -0.76300
O3491       O  0.51849926  0.97951765  0.77157435    -0.70900
Mn3492     Mn  0.91536287  0.93662513  0.83429287     1.51100
O3493       O  0.91837416  0.49946553  0.86475162    -0.88300
O3494       O  0.54450654  0.97951430  0.80849920    -0.95800
O3495       O  0.89559841  0.94898528  0.79968447    -0.90800
C3496       C  0.54079891  0.97848155  0.78080796     1.13900
C3497       C  0.00088150  0.64184063  0.97270765    -0.11200
C3498       C  0.97543425  0.61418998  0.97121146     0.11400
C3499       C  0.95027215  0.60865644  0.98847154    -0.03000
C3500       C  0.95027735  0.63293244  0.50406626    -0.05700
C3501       C  0.97522027  0.66107013  0.50286031    -0.16500
C3502       C  0.00152097  0.66502291  0.98955951     0.02400
C3503       C  0.97599603  0.59172446  0.95090760     0.12400
C3504       C  0.92372107  0.57817632  0.49280174     0.63000
H3505       H  0.93119968  0.63002917  0.51676684     0.12400
C3506       C  0.53194478  0.68345189  0.01850747     0.55100
H3507       H  0.52208185  0.63638349  0.98303914     0.08200
C3508       C  0.96921526  0.59014370  0.91916936    -0.05600
C3509       C  0.97106628  0.56900024  0.90090550    -0.06300
C3510       C  0.98118376  0.55061513  0.91283977    -0.15900
C3511       C  0.98930510  0.55333412  0.94457655    -0.01500
C3512       C  0.98594192  0.57353177  0.96315846    -0.09100
C3513       C  0.96173544  0.61186644  0.90432919     0.65200
H3514       H  0.96544322  0.56739669  0.87667273     0.10700
C3515       C  0.46358013  0.51637728  0.95855060     0.63600
H3516       H  0.46328310  0.56278220  0.98622074     0.08000
F3517       F  0.53845853  0.71129474  0.00943562    -0.19400
F3518       F  0.55524921  0.67950670  0.00991788    -0.15700
F3519       F  0.52979155  0.68157708  0.05026157    -0.19200
F3520       F  0.93253868  0.56033985  0.50727864    -0.22500
F3521       F  0.91194490  0.56832930  0.96118764    -0.24000
F3522       F  0.90161421  0.57826854  0.51018617    -0.18000
F3523       F  0.45307959  0.51404764  0.98828014    -0.20500
F3524       F  0.48798515  0.51282498  0.96002105    -0.21600
F3525       F  0.44172076  0.49395395  0.94112274    -0.18800
F3526       F  0.95402544  0.60532096  0.87356652    -0.18900
F3527       F  0.98603568  0.63980493  0.90606799    -0.22800
F3528       F  0.93837008  0.61169891  0.91933025    -0.24400
C3529       C  0.96975130  0.79716993  0.99218730    -0.11200
C3530       C  0.98568724  0.80434554  0.96457528     0.11400
C3531       C  0.49732234  0.78619282  0.95235927    -0.03000
C3532       C  0.49743515  0.76573493  0.97312600    -0.05700
C3533       C  0.98140983  0.75837202  0.00244622    -0.16500
C3534       C  0.96648559  0.77381976  0.01091819     0.02400
C3535       C  0.98626994  0.82787528  0.94483353     0.12400
C3536       C  0.51183384  0.79025638  0.92103938     0.63000
H3537       H  0.50879787  0.75396256  0.96689037     0.12400
C3538       C  0.94569101  0.76490360  0.53187943     0.55100
H3539       H  0.95945538  0.80987710  0.99883024     0.08200
C3540       C  0.96147339  0.82355482  0.92743114    -0.05600
C3541       C  0.96405166  0.84656953  0.90860462    -0.06300
C3542       C  0.99116579  0.87289861  0.90445520    -0.15900
C3543       C  0.01649769  0.87601731  0.92062763    -0.01500
C3544       C  0.01283767  0.85437737  0.94215199    -0.09100
C3545       C  0.93267165  0.79438981  0.92794809     0.65200
H3546       H  0.94475570  0.84346398  0.89607650     0.10700
C3547       C  0.54523966  0.89712693  0.90844790     0.63600
H3548       H  0.52992404  0.85350887  0.94941475     0.08000
F3549       F  0.92673238  0.77591178  0.03604037    -0.19400
F3550       F  0.95979680  0.77444962  0.56001270    -0.15700
F3551       F  0.92836065  0.73459907  0.53194784    -0.19200
F3552       F  0.53812575  0.81661535  0.92047518    -0.22500
F3553       F  0.49343095  0.79014782  0.89796808    -0.24000
F3554       F  0.51790825  0.76794653  0.91459209    -0.18000
F3555       F  0.05446494  0.90050452  0.88373856    -0.20500
F3556       F  0.56649131  0.89380085  0.92419565    -0.21600
F3557       F  0.54886702  0.92404781  0.91646108    -0.18800
F3558       F  0.91268114  0.79341550  0.90627053    -0.18900
F3559       F  0.91980814  0.78999214  0.95664470    -0.22800
F3560       F  0.93799778  0.77160223  0.92151017    -0.24400
C3561       C  0.99141835  0.60352003  0.74823667    -0.11200
C3562       C  0.99485133  0.60153310  0.71664368     0.11400
C3563       C  0.50393380  0.57852141  0.70484928    -0.03000
C3564       C  0.49967166  0.55627987  0.72600479    -0.05700
C3565       C  0.99180385  0.55765883  0.75750356    -0.16500
C3566       C  0.98918477  0.58199118  0.76898572     0.02400
C3567       C  0.99413871  0.62446241  0.69692560     0.12400
C3568       C  0.51495436  0.57846693  0.67254705     0.63000
H3569       H  0.50340769  0.53866092  0.71869153     0.12400
C3570       C  0.98318456  0.58561277  0.80265869     0.55100
H3571       H  0.98960027  0.62209427  0.75636857     0.08200
C3572       C  0.96725235  0.62396706  0.69028696    -0.05600
C3573       C  0.96827567  0.64818168  0.67520056    -0.06300
C3574       C  0.99509352  0.67266251  0.66672995    -0.15900
C3575       C  0.52676309  0.67588168  0.67810344    -0.01500
C3576       C  0.52589606  0.65108053  0.69182190    -0.09100
C3577       C  0.93757706  0.59808150  0.69929070     0.65200
H3578       H  0.94805573  0.64833041  0.66997814     0.10700
C3579       C  0.55543614  0.70490919  0.67670940     0.63600
H3580       H  0.54564496  0.65282620  0.70208829     0.08000
F3581       F  0.98044009  0.61025449  0.80748869    -0.19400
F3582       F  0.00623225  0.58873551  0.82105511    -0.15700
F3583       F  0.95699846  0.56158855  0.81187335    -0.19200
F3584       F  0.54156499  0.60396269  0.66807383    -0.22500
F3585       F  0.97984304  0.57336060  0.65409126    -0.24000
F3586       F  0.51928500  0.55478347  0.66771919    -0.18000
F3587       F  0.55278030  0.72599500  0.69333650    -0.20500
F3588       F  0.56189781  0.71387744  0.64638796    -0.21600
F3589       F  0.57878432  0.70275329  0.68893827    -0.18800
F3590       F  0.91427109  0.60106420  0.68836754    -0.18900
F3591       F  0.93532564  0.59578805  0.73100931    -0.22800
F3592       F  0.93469594  0.57240476  0.68716963    -0.24400
C3593       C  0.50324180  0.83549316  0.75614781    -0.11200
C3594       C  0.99242787  0.83437259  0.72432471     0.11400
C3595       C  0.97241125  0.84513653  0.72286614    -0.03000
C3596       C  0.97436635  0.86548891  0.74535627    -0.05700
C3597       C  0.99609386  0.87614173  0.76871452    -0.16500
C3598       C  0.50637461  0.85794294  0.77627984     0.02400
C3599       C  0.99026051  0.81081101  0.70321345     0.12400
C3600       C  0.94882476  0.83494287  0.69789602     0.63000
H3601       H  0.95835921  0.87284651  0.74515902     0.12400
C3602       C  0.52631592  0.86527947  0.80438125     0.55100
H3603       H  0.51469718  0.82348137  0.76091002     0.08200
C3604       C  0.51039665  0.81166129  0.68977427    -0.05600
C3605       C  0.50966173  0.78874944  0.67218143    -0.06300
C3606       C  0.98615617  0.76361446  0.66738105    -0.15900
C3607       C  0.96464684  0.75819099  0.69016058    -0.01500
C3608       C  0.96790345  0.78177182  0.70855994    -0.09100
C3609       C  0.53755439  0.84205179  0.68872967     0.65200
H3610       H  0.52839761  0.79275074  0.65813881     0.10700
C3611       C  0.93756132  0.72834468  0.69556144     0.63600
H3612       H  0.95243450  0.77751575  0.72710105     0.08000
F3613       F  0.55005916  0.89344917  0.80169274    -0.19400
F3614       F  0.53736364  0.84628589  0.80755375    -0.15700
F3615       F  0.51069095  0.86328869  0.83077213    -0.19200
F3616       F  0.92837227  0.80558039  0.70186817    -0.22500
F3617       F  0.96153988  0.83872124  0.66916136    -0.24000
F3618       F  0.93398402  0.85063648  0.69857925    -0.18000
F3619       F  0.94031848  0.71755258  0.72366226    -0.20500
F3620       F  0.93306747  0.70799394  0.67282064    -0.21600
F3621       F  0.91272871  0.73138825  0.69615845    -0.18800
F3622       F  0.55712017  0.84373185  0.66633074    -0.18900
F3623       F  0.55204995  0.84869829  0.71684237    -0.22800
F3624       F  0.52950642  0.86286864  0.68208144    -0.24400
C3625       C  0.83774906  0.98633596  0.91336924    -0.11200
C3626       C  0.83010577  0.96776281  0.93898061     0.11400
C3627       C  0.84438065  0.95117485  0.94386004    -0.03000
C3628       C  0.86589260  0.95364631  0.92263509    -0.05700
C3629       C  0.87424032  0.97283912  0.89734617    -0.16500
C3630       C  0.85970014  0.98936413  0.89243667     0.02400
C3631       C  0.80657322  0.96558688  0.96005797     0.12400
C3632       C  0.83407589  0.42807648  0.96755227     0.63000
H3633       H  0.87475508  0.43856001  0.92286546     0.12400
C3634       C  0.86626945  0.00919908  0.86458064     0.55100
H3635       H  0.82622013  0.99847653  0.90991769     0.08200
C3636       C  0.81484318  0.48819469  0.98320131    -0.05600
C3637       C  0.79195383  0.48540881  0.00244341    -0.06300
C3638       C  0.76055320  0.95873257  0.99975188    -0.15900
C3639       C  0.75604694  0.93114091  0.48306815    -0.01500
C3640       C  0.77802754  0.94136643  0.95696767    -0.09100
C3641       C  0.84562888  0.51420584  0.98743391     0.65200
H3642       H  0.79655204  0.50169612  0.02023434     0.10700
C3643       C  0.72870037  0.90156944  0.48841274     0.63600
H3644       H  0.77381596  0.92524205  0.93907003     0.08000
F3645       F  0.89446838  0.03308351  0.86698013    -0.19400
F3646       F  0.84685644  0.01985570  0.86216497    -0.15700
F3647       F  0.86383094  0.99368410  0.83783080    -0.19200
F3648       F  0.81565316  0.90708908  0.47635948    -0.22500
F3649       F  0.84005396  0.44259548  0.99558777    -0.24000
F3650       F  0.84872305  0.41221604  0.96682332    -0.18000
F3651       F  0.72973637  0.87920294  0.47245553    -0.20500
F3652       F  0.70386251  0.90234015  0.47889472    -0.21600
F3653       F  0.72631646  0.89501343  0.51950412    -0.18800
F3654       F  0.84795513  0.52961759  0.01423081    -0.18900
F3655       F  0.85212472  0.53308530  0.96282138    -0.22800
F3656       F  0.86614273  0.50490383  0.98898205    -0.24400
C3657       C  0.57867095  0.97423066  0.96642866    -0.11200
C3658       C  0.60690944  0.98347210  0.95484290     0.11400
C3659       C  0.61555580  0.48996080  0.92014938    -0.03000
C3660       C  0.59305221  0.48948828  0.90207806    -0.05700
C3661       C  0.56303334  0.98395718  0.91688277    -0.16500
C3662       C  0.55635745  0.97411909  0.94796532     0.02400
C3663       C  0.62820076  0.97982621  0.97425724     0.12400
C3664       C  0.63884677  0.48474652  0.90516877     0.63000
H3665       H  0.59367062  0.48684878  0.87744200     0.12400
C3666       C  0.52558645  0.96158059  0.96112234     0.55100
H3667       H  0.57407940  0.96620986  0.98988147     0.08200
C3668       C  0.66629631  0.51631382  0.97734743    -0.05600
C3669       C  0.67992750  0.50655419  0.50302266    -0.06300
C3670       C  0.67349224  0.97350543  0.49851287    -0.15900
C3671       C  0.64733081  0.94734278  0.98886127    -0.01500
C3672       C  0.62628009  0.95218896  0.97382367    -0.09100
C3673       C  0.66225734  0.54254221  0.49659772     0.65200
H3674       H  0.69730955  0.52298930  0.51751582     0.10700
C3675       C  0.64302436  0.91652949  0.99012386     0.63600
H3676       H  0.60830778  0.93449481  0.96112637     0.08000
F3677       F  0.52378095  0.95144694  0.99092876    -0.19400
F3678       F  0.50569090  0.93816369  0.94315181    -0.15700
F3679       F  0.51781723  0.98316517  0.96180751    -0.19200
F3680       F  0.63907193  0.46107399  0.91885460    -0.22500
F3681       F  0.66633271  0.50942186  0.90854262    -0.24000
F3682       F  0.63354984  0.47863104  0.87398580    -0.18000
F3683       F  0.61552219  0.89573159  0.97905053    -0.20500
F3684       F  0.64535663  0.90935972  0.02029513    -0.21600
F3685       F  0.66414683  0.91503418  0.97244933    -0.18800
F3686       F  0.68899515  0.56449663  0.48558945    -0.18900
F3687       F  0.65079630  0.03571062  0.53017565    -0.22800
F3688       F  0.65532037  0.55101603  0.95219687    -0.24400
C3689       C  0.86156470  0.98226670  0.71576178    -0.11200
C3690       C  0.83183961  0.96606552  0.72445119     0.11400
C3691       C  0.82438553  0.95016477  0.75244037    -0.03000
C3692       C  0.84721889  0.95223916  0.77155650    -0.05700
C3693       C  0.87713884  0.96993416  0.76388147    -0.16500
C3694       C  0.88445381  0.98467548  0.73513002     0.02400
C3695       C  0.80896939  0.96668752  0.70420733     0.12400
C3696       C  0.79426202  0.42953972  0.75942144     0.63000
H3697       H  0.84327020  0.44034888  0.79235484     0.12400
C3698       C  0.91616768  0.00321007  0.72505101     0.55100
H3699       H  0.86674607  0.99384948  0.69401653     0.08200
C3700       C  0.80265979  0.99001062  0.70550656    -0.05600
C3701       C  0.77956530  0.98835003  0.68708321    -0.06300
C3702       C  0.76311414  0.96453422  0.66706650    -0.15900
C3703       C  0.76981014  0.94140643  0.66539420    -0.01500
C3704       C  0.79286179  0.94308044  0.68392591    -0.09100
C3705       C  0.82313109  0.51610814  0.72401953     0.65200
H3706       H  0.77424141  0.00582621  0.68796435     0.10700
C3707       C  0.75208279  0.91452439  0.64505475     0.63600
H3708       H  0.79833770  0.92571127  0.68306391     0.08000
F3709       F  0.92944996  0.02860983  0.74251139    -0.19400
F3710       F  0.91820565  0.01097391  0.69430290    -0.15700
F3711       F  0.93108368  0.98785321  0.72900715    -0.19200
F3712       F  0.77726338  0.90919547  0.74112506    -0.22500
F3713       F  0.77977752  0.44555576  0.75990505    -0.24000
F3714       F  0.79145983  0.41716549  0.78824101    -0.18000
F3715       F  0.75709462  0.92226574  0.61434238    -0.20500
F3716       F  0.72230734  0.90235667  0.65117409    -0.21600
F3717       F  0.75974583  0.89312374  0.65009201    -0.18800
F3718       F  0.81287305  0.53583859  0.72222404    -0.18900
F3719       F  0.84939115  0.03168942  0.71612115    -0.22800
F3720       F  0.82063055  0.50696410  0.75427948    -0.24400
C3721       C  0.61887518  0.94042900  0.69083297    -0.11200
C3722       C  0.62143280  0.96813428  0.69541454     0.11400
C3723       C  0.64668289  0.99356851  0.68411366    -0.03000
C3724       C  0.66840294  0.99023630  0.66832690    -0.05700
C3725       C  0.66599078  0.96258939  0.66418248    -0.16500
C3726       C  0.64077615  0.93721863  0.67524419     0.02400
C3727       C  0.59982937  0.97018688  0.71625640     0.12400
C3728       C  0.65509783  0.52148481  0.69655833     0.63000
H3729       H  0.68787887  0.00932997  0.65956982     0.12400
C3730       C  0.63726333  0.90699613  0.67062213     0.55100
H3731       H  0.59984649  0.92135277  0.70030347     0.08200
C3732       C  0.57163861  0.96479203  0.70658934    -0.05600
C3733       C  0.55321523  0.96795331  0.72824931    -0.06300
C3734       C  0.56166923  0.97538261  0.75937320    -0.15900
C3735       C  0.58963634  0.97929277  0.76914553    -0.01500
C3736       C  0.60794285  0.97658809  0.74723615    -0.09100
C3737       C  0.56538327  0.45472089  0.67443780     0.65200
H3738       H  0.53551468  0.46452360  0.72045040     0.10700
C3739       C  0.60103546  0.98681645  0.80220575     0.63600
H3740       H  0.62924238  0.97959759  0.75405153     0.08000
F3741       F  0.61184311  0.88533319  0.68423257    -0.19400
F3742       F  0.66098641  0.90605966  0.68359787    -0.15700
F3743       F  0.63591849  0.90087711  0.63942911    -0.19200
F3744       F  0.65307611  0.03042717  0.72040594    -0.22500
F3745       F  0.63094430  0.52401639  0.68815028    -0.24000
F3746       F  0.67961017  0.54350547  0.68188353    -0.18000
F3747       F  0.62915302  0.99073965  0.80547086    -0.20500
F3748       F  0.58276128  0.96426835  0.82168892    -0.21600
F3749       F  0.60240177  0.01272213  0.81129526    -0.18800
F3750       F  0.53753547  0.45079474  0.66882749    -0.18900
F3751       F  0.57971013  0.97672267  0.65338879    -0.22800
F3752       F  0.58516162  0.47668545  0.65530911    -0.24400
C3753       C  0.81462732  0.83583798  0.97105504    -0.11200
C3754       C  0.84263322  0.83830348  0.97090104     0.11400
C3755       C  0.84795518  0.81910504  0.98921988    -0.03000
C3756       C  0.82417643  0.79625433  0.00514786    -0.05700
C3757       C  0.79573590  0.79485064  0.50306873    -0.16500
C3758       C  0.79279924  0.81471424  0.48330199     0.02400
C3759       C  0.86576043  0.86043866  0.95039131     0.12400
C3760       C  0.87867769  0.82293029  0.99181418     0.63000
H3761       H  0.82754484  0.78082095  0.01864757     0.12400
C3762       C  0.76371899  0.81444614  0.48006935     0.55100
H3763       H  0.81132301  0.85135722  0.95762853     0.08200
C3764       C  0.86705016  0.85455819  0.91880573    -0.05600
C3765       C  0.89036409  0.87568272  0.90101265    -0.06300
C3766       C  0.91189565  0.90301322  0.91328945    -0.15900
C3767       C  0.90971060  0.90925704  0.94489603    -0.01500
C3768       C  0.88690770  0.88748138  0.96292323    -0.09100
C3769       C  0.84375634  0.82605748  0.90392261     0.65200
H3770       H  0.89164599  0.87093602  0.87695353     0.10700
C3771       C  0.93049671  0.93875798  0.95968433     0.63600
H3772       H  0.88512413  0.89144054  0.98712731     0.08000
F3773       F  0.76666942  0.83787072  0.46271332    -0.19400
F3774       F  0.75353062  0.81631529  0.50890646    -0.15700
F3775       F  0.74302122  0.78879691  0.46573565    -0.19200
F3776       F  0.89772878  0.85005824  0.00474550    -0.22500
F3777       F  0.88884668  0.82126177  0.96292590    -0.24000
F3778       F  0.87907718  0.80160049  0.01018759    -0.18000
F3779       F  0.92954618  0.96091790  0.94345410    -0.20500
F3780       F  0.95887839  0.94329422  0.95979534    -0.21600
F3781       F  0.92299047  0.94039198  0.98992541    -0.18800
F3782       F  0.84951549  0.82437483  0.87307660    -0.18900
F3783       F  0.81643464  0.82411740  0.90582485    -0.22800
F3784       F  0.84273115  0.80231226  0.91883113    -0.24400
C3785       C  0.65113184  0.67315255  0.98054862    -0.11200
C3786       C  0.65680986  0.65389622  0.96325373     0.11400
C3787       C  0.68523444  0.65669653  0.96429822    -0.03000
C3788       C  0.70695814  0.67860737  0.98319958    -0.05700
C3789       C  0.70114168  0.69744597  0.00103471    -0.16500
C3790       C  0.67292790  0.69509298  0.99948956     0.02400
C3791       C  0.63328447  0.63286113  0.94235062     0.12400
C3792       C  0.69426365  0.63798601  0.94547400     0.63000
H3793       H  0.72887678  0.68117913  0.98395272     0.12400
C3794       C  0.66450749  0.71187106  0.52089182     0.55100
H3795       H  0.62949562  0.67108644  0.97864558     0.08200
C3796       C  0.61109887  0.60490532  0.95244385    -0.05600
C3797       C  0.59114097  0.58509091  0.93058144    -0.06300
C3798       C  0.59260411  0.59267370  0.89950647    -0.15900
C3799       C  0.61396513  0.62110293  0.88968903    -0.01500
C3800       C  0.63416826  0.64084626  0.91139888    -0.09100
C3801       C  0.60912369  0.59593633  0.98594117     0.65200
H3802       H  0.57448198  0.56343433  0.93745167     0.10700
C3803       C  0.61530454  0.63027925  0.85637724     0.63600
H3804       H  0.65117595  0.66251602  0.90435123     0.08000
F3805       F  0.66724031  0.70910501  0.55222576    -0.19400
F3806       F  0.63825103  0.71157694  0.00993727    -0.15700
F3807       F  0.68249024  0.74088740  0.51251896    -0.19200
F3808       F  0.71467436  0.65552011  0.92367819    -0.22500
F3809       F  0.67100692  0.61468174  0.93041511    -0.24000
F3810       F  0.70719074  0.62655915  0.96470745    -0.18000
F3811       F  0.58914077  0.62931531  0.84862404    -0.20500
F3812       F  0.61937477  0.61135429  0.83743568    -0.21600
F3813       F  0.63822752  0.65853989  0.85131043    -0.18800
F3814       F  0.58915863  0.56302965  0.49535410    -0.18900
F3815       F  0.60449188  0.60980972  0.50848517    -0.22800
F3816       F  0.63745970  0.59465794  0.50168410    -0.24400
C3817       C  0.83978751  0.81111551  0.70010045    -0.11200
C3818       C  0.84345824  0.83946623  0.70047020     0.11400
C3819       C  0.82375110  0.84553384  0.68389856    -0.03000
C3820       C  0.79934054  0.82209208  0.66920887    -0.05700
C3821       C  0.79490525  0.79343531  0.67003046    -0.16500
C3822       C  0.81588058  0.78787916  0.68460217     0.02400
C3823       C  0.86717771  0.86194846  0.71999834     0.12400
C3824       C  0.82872901  0.87660386  0.68162427     0.63000
H3825       H  0.78353553  0.82590940  0.65679631     0.12400
C3826       C  0.81332057  0.75777868  0.68299631     0.55100
H3827       H  0.85566968  0.80733163  0.71240410     0.08200
C3828       C  0.86249080  0.86430458  0.75161708    -0.05600
C3829       C  0.88583155  0.88568727  0.76917899    -0.06300
C3830       C  0.91370063  0.90472537  0.75636492    -0.15900
C3831       C  0.91813094  0.90273229  0.72430361    -0.01500
C3832       C  0.89462313  0.88090709  0.70673629    -0.09100
C3833       C  0.83321411  0.84373698  0.76703552     0.65200
H3834       H  0.88235034  0.88740157  0.79350317     0.10700
C3835       C  0.94709835  0.92322843  0.70845742     0.63600
H3836       H  0.89733224  0.87846095  0.68235825     0.08000
F3837       F  0.78773208  0.73721566  0.69730057    -0.19400
F3838       F  0.83692835  0.75754532  0.69731553    -0.15700
F3839       F  0.81266246  0.74970592  0.65248260    -0.19200
F3840       F  0.85562383  0.89459633  0.66784913    -0.22500
F3841       F  0.82872524  0.88759724  0.71062535    -0.24000
F3842       F  0.80703801  0.87759380  0.66412782    -0.18000
F3843       F  0.97009464  0.92179644  0.72258131    -0.20500
F3844       F  0.95231780  0.95174293  0.70990580    -0.21600
F3845       F  0.94669809  0.91601959  0.67765468    -0.18800
F3846       F  0.83247126  0.85195459  0.79724310    -0.18900
F3847       F  0.82886442  0.81550429  0.76715708    -0.22800
F3848       F  0.81012962  0.84373811  0.75138232    -0.24400
C3849       C  0.64412729  0.67441929  0.68551641    -0.11200
C3850       C  0.65073922  0.65640432  0.70389034     0.11400
C3851       C  0.68001745  0.66133393  0.70454527    -0.03000
C3852       C  0.70178700  0.68454917  0.68711791    -0.05700
C3853       C  0.69539020  0.70307940  0.66946415    -0.16500
C3854       C  0.66617430  0.69826945  0.66883130     0.02400
C3855       C  0.62718157  0.63372827  0.72380179     0.12400
C3856       C  0.68840778  0.64245243  0.72389994     0.63000
H3857       H  0.72423437  0.68857076  0.68718055     0.12400
C3858       C  0.65861761  0.71903085  0.65196294     0.55100
H3859       H  0.62155634  0.67000241  0.68491076     0.08200
C3860       C  0.61797903  0.64145368  0.75123298    -0.05600
C3861       C  0.59820763  0.61890054  0.77074747    -0.06300
C3862       C  0.58848361  0.58909150  0.76474466    -0.15900
C3863       C  0.59657954  0.58134428  0.73652669    -0.01500
C3864       C  0.61531290  0.60389871  0.71618860    -0.09100
C3865       C  0.62968421  0.67337566  0.76046131     0.65200
H3866       H  0.59091348  0.62455466  0.79160717     0.10700
C3867       C  0.58566955  0.54959648  0.72784018     0.63600
H3868       H  0.62191486  0.59846879  0.69463827     0.08000
F3869       F  0.63016006  0.71290687  0.65814047    -0.19400
F3870       F  0.66086926  0.71660953  0.62051361    -0.15700
F3871       F  0.67772768  0.74768593  0.66112801    -0.19200
F3872       F  0.67427631  0.61396357  0.71269574    -0.22500
F3873       F  0.68036749  0.64241184  0.75425109    -0.24000
F3874       F  0.71847914  0.65272250  0.72333047    -0.18000
F3875       F  0.59860194  0.53825593  0.74708414    -0.20500
F3876       F  0.59277821  0.54680954  0.69777824    -0.21600
F3877       F  0.55530338  0.53344107  0.73056129    -0.18800
F3878       F  0.61965287  0.67589005  0.78918636    -0.18900
F3879       F  0.62053588  0.68691108  0.73935273    -0.22800
F3880       F  0.66018910  0.68805073  0.76156153    -0.24400
loop_ 
_geom_bond_atom_site_label_1 
_geom_bond_atom_site_label_2 
_geom_bond_distance 
_geom_bond_site_symmetry_2 
_ccdc_geom_bond_type 
C1            C2   1.403       .  A
C1            C6   1.408       .  A
C1          C458   1.494       .  S
C2            C3   1.399       .  A
C2            H7   1.084       .  S
C3            C4   1.398       .  A
C3          C426   1.484       .  S
C4            C5   1.415       .  A
C4            H8   1.079       .  S
C5            C6   1.419       .  A
C5           C14   1.518       .  S
C6            H9   1.077       .  S
C10          C11   1.402       .  A
C10          C15   1.406       .  A
C10         C879   1.488       .  S
C11          C12   1.398       .  A
C11         H501   1.084   1_554  S
C12          C13   1.399       .  A
C12         C362   1.484       .  S
C13          C14   1.417       .  A
C13          H17   1.079       .  S
C14          C15   1.418       .  A
C15          H18   1.077       .  S
H16         C496   1.084       .  S
C19          C20   1.404       .  A
C19          C24   1.405       .  A
C19         C307   1.487       .  S
C20          C21   1.401       .  A
C20          H25   1.084       .  S
C21          C22   1.401       .  A
C21         C330   1.485       .  S
C22          C23   1.415       .  A
C22          H26   1.080       .  S
C23          C24   1.413       .  A
C23          C30   1.507       .  S
C24          H27   1.080       .  S
C28          C29   1.409       .  A
C28          C33   1.398       .  A
C28         C728   1.484   1_554  S
C29          C30   1.418       .  A
C29          H34   1.081       .  S
C30          C31   1.412       .  A
C31          C32   1.398       .  A
C31          H35   1.080       .  S
C32          C33   1.395       .  A
C32         C275   1.473       .  S
C33         H521   1.084   1_554  S
H36         C518   1.083       .  S
C37          C38   1.404       .  A
C37          C42   1.404       .  A
C37         C211   1.485       .  S
C38          C39   1.412       .  A
C38          H43   1.080       .  S
C39          C40   1.411       .  A
C39          C50   1.503       .  S
C40          C41   1.397       .  A
C40          H44   1.079       .  S
C41          C42   1.400       .  A
C41         C179   1.478       .  S
C42          H45   1.084       .  S
C46          C47   1.402       .  A
C46          C51   1.405       .  A
C46         C623   1.487       .  S
C47          C48   1.397       .  A
C47         H537   1.084   1_554  S
C48          C49   1.397       .  A
C48         C106   1.476       .  S
C49          C50   1.412       .  A
C49          H53   1.078       .  S
C50          C51   1.413       .  A
C51          H54   1.079       .  S
H52         C532   1.084       .  S
O55         Mn81   2.099       .  S
O55        C2022   1.272   1_455  A
C56         C467   1.497       .  S
C56          O89   1.273       .  A
C56          O86   1.275       .  A
O57         Mn64   2.183       .  S
O57         Mn75   2.118       .  S
O57         Mn79   2.166       .  S
O57       Mn2021   2.119       .  S
O58         Mn92   2.093       .  S
O58          C68   1.270       .  A
O59         Mn75   2.113       .  S
O59          C82   1.278       .  A
O60         Mn79   2.116       .  S
O60          C87   1.253       .  A
O61         Mn81   1.974       .  S
O61       Mn1062   1.971       .  S
O61          C77   1.221       .  S
C62         C115   1.499       .  S
C62          O65   1.253       .  A
C62          O88   1.218       .  S
O63         Mn64   2.178       .  S
O63         Mn97   2.127       .  S
O63         Mn79   2.167       .  S
O63       Mn1053   2.111       .  S
Mn64         O69   2.100       .  S
Mn64       O1063   2.143       .  S
Mn64       O2036   2.134       .  S
Mn64       O2980   2.165       .  S
O65       Mn1049   2.116   1_545  S
O66         Mn73   2.098       .  S
O66          C68   1.273       .  A
C67         C170   1.501       .  S
C67          O93   1.260       .  A
C67          O80   1.211       .  S
C68         C403   1.475       .  S
O69          C94   1.252       .  A
O70         Mn73   2.117       .  S
O70         Mn92   2.114       .  S
O70       Mn2974   2.169   1_445  S
O70       Mn2989   2.169   1_445  S
O71         Mn75   1.966       .  S
O71         Mn97   1.953       .  S
O71          C94   1.221       .  S
C72         C234   1.488       .  S
C72          O74   1.272       .  A
C72        O1068   1.272       .  A
Mn73         O86   2.114       .  S
Mn73       O2028   1.981   1_455  S
Mn73       O2020   1.939   1_455  S
O74         Mn97   2.093       .  S
Mn75         O91   2.086       .  S
Mn75         O85   1.962       .  S
O76         Mn81   2.103       .  S
O76        C2018   1.272   1_455  A
C77         C266   1.488       .  S
C77          O95   1.251       .  A
C78         C202   1.490       .  S
C78          O91   1.270       .  A
C78        O2016   1.271       .  A
Mn79       O1035   2.117       .  S
Mn79       O2035   2.101       .  S
Mn79       O2980   2.170       .  S
O80         Mn83   1.956       .  S
O80       Mn2013   1.945       .  S
Mn81       O1997   2.117   1_455  S
Mn81         O99   1.943       .  S
C82         C147   1.507       .  S
C82        O1995   1.269       .  A
Mn83         O90   2.110       .  S
Mn83         O98   2.094       .  S
Mn83       O1033   2.114   1_545  S
Mn83         O88   1.969       .  S
C84         C298   1.490       .  S
C84         O100   1.271       .  A
C84        O1060   1.277       .  A
O85         Mn97   1.955       .  S
O85          C87   1.218       .  S
C87         C371   1.500       .  S
O88       Mn2013   1.967       .  S
O89         Mn92   2.108       .  S
O90        C1054   1.274   1_545  A
Mn92       O1031   1.958   1_545  S
Mn92       O1069   1.959   1_545  S
O93       Mn1034   2.140   1_545  S
C94         C435   1.489       .  S
O95       Mn2019   2.095   1_455  S
O96       Mn2004   2.134   1_455  S
O96         C101   1.257       .  A
Mn97        O100   2.089       .  S
O98        C1042   1.271   1_545  A
O99       Mn1062   1.958       .  S
O99         C101   1.210       .  S
C101        C339   1.500       .  S
C102        C103   1.401       .  A
C102        C107   1.405       .  A
C102       H2052   1.083       .  S
C103        C104   1.417       .  A
C103        C108   1.487       .  S
C104        C590   1.411       .  A
C104        C594   1.517       .  S
C105        C106   1.404       .  A
C105        C589   1.408   1_554  A
C105        H110   1.083       .  S
C106        C592   1.419   1_554  A
C107        C591   1.418       .  A
C107       C2051   1.520       .  S
C108        C113   1.413       .  A
C108        C117   1.401       .  A
C109        C589   1.517   1_554  S
C109        F125   1.382       .  S
C109        F127   1.385       .  S
C109        F611   1.381   1_554  S
C111       C2047   1.520       .  S
C111        F122   1.381       .  S
C111        F123   1.385       .  S
C111        F124   1.384       .  S
H112       C2042   1.083   1_455  S
C113        C114   1.406       .  A
C113        C118   1.521       .  S
C114        C115   1.411       .  A
C114        H119   1.082       .  S
C115        C116   1.424       .  A
C116        C117   1.411       .  A
C116       C2060   1.515       .  S
C117       H2061   1.083       .  S
C118        F131   1.385       .  S
C118        F132   1.382       .  S
C118        F133   1.381       .  S
C120       C2056   1.511   1_455  S
C120        F128   1.385       .  S
C120        F129   1.382       .  S
C120        F130   1.380   1_455  S
H121       C2057   1.083       .  S
F126        C594   1.380       .  S
C134        C135   1.403       .  A
C134        C139   1.409       .  A
C134        H144   1.083       .  S
C135       C2076   1.418       .  A
C135        C140   1.490       .  S
C136        C137   1.404       .  A
C136       C2075   1.419   1_455  A
C136        C141   1.522       .  S
C137       C2078   1.404   1_455  A
C137        H142   1.082       .  S
C138        C139   1.423       .  A
C138       C2077   1.405       .  A
C138        C531   1.492       .  S
C139        C628   1.521       .  S
C140        C145   1.415       .  A
C140        C149   1.396       .  A
C141        F157   1.381       .  S
C141        F158   1.383       .  S
C141        F159   1.385       .  S
C143        C624   1.521       .  S
C143        F155   1.380       .  S
C143        F156   1.383       .  S
C143        F639   1.385       .  S
C145        C146   1.409       .  A
C145        C150   1.520       .  S
C146        C147   1.413       .  A
C146        H151   1.082       .  S
C147        C148   1.432       .  A
C148        C149   1.407       .  A
C148       C2092   1.521       .  S
C149       H2093   1.082       .  S
C150        F163   1.384       .  S
C150        F164   1.380       .  S
C150        F165   1.384       .  S
C152       C2088   1.519       .  S
C152        F161   1.384       .  S
C152        F162   1.376       .  S
C152       F2100   1.383       .  S
H153       C2089   1.082       .  S
F154        C628   1.385       .  S
F160       C2092   1.382       .  S
C166        C167   1.393       .  A
C166        C171   1.403       .  A
C166        H176   1.083       .  S
C167       C2108   1.414       .  A
C167        C172   1.486       .  S
C168        C169   1.411       .  A
C168       C2107   1.414       .  A
C168        C173   1.517   1_655  S
C169       C2110   1.409       .  A
C169        H174   1.082       .  S
C170        C171   1.436       .  A
C170       C2109   1.410       .  A
C171        C175   1.526       .  S
C172        C177   1.418       .  A
C172       C2121   1.405       .  A
C173        F189   1.382       .  S
C173        F191   1.385       .  S
C173       F2130   1.382   1_455  S
C175        F186   1.385       .  S
C175        F187   1.382       .  S
C175        F188   1.382       .  S
C177        C178   1.404       .  A
C177        C182   1.519       .  S
C178        C179   1.400       .  A
C178        H183   1.084       .  S
C179       C2120   1.412       .  A
C180        C181   1.408       .  A
C180       C2119   1.414   1_455  A
C180        C184   1.516       .  S
C181       C2112   1.403   1_455  A
C181        H185   1.083       .  S
C182        F195   1.384       .  S
C182        F196   1.382       .  S
C182        F197   1.379       .  S
C184        F192   1.383       .  S
C184        F193   1.383       .  S
C184        F194   1.385       .  S
F190       C2113   1.382       .  S
C198        C203   1.408       .  A
C198       C2139   1.402   1_455  A
C198        H208   1.083       .  S
C199        C200   1.415       .  A
C199       C2138   1.400       .  A
C199        C204   1.486       .  S
C200        C201   1.408       .  A
C200        C205   1.519       .  S
C201        C202   1.408       .  A
C201        H206   1.082       .  S
C202       C2143   1.423       .  A
C203       C2142   1.422   1_455  A
C203        C207   1.520       .  S
C204        C213   1.402       .  A
C204       C2149   1.416       .  A
C205        F221   1.382       .  S
C205        F222   1.382       .  S
C205        F223   1.384       .  S
C207        F218   1.383       .  S
C207        F219   1.385       .  S
C207        F220   1.384       .  S
C209        C210   1.407       .  A
C209       C2144   1.416   1_455  A
C209        C214   1.519       .  S
C210       C2151   1.405   1_455  A
C210        H215   1.083       .  S
C211        C212   1.420       .  A
C211       C2150   1.405       .  A
C212        C213   1.406       .  A
C212        C216   1.519       .  S
C213        H217   1.084       .  S
C214        F227   1.385       .  S
C214        F228   1.381       .  S
C214        F229   1.380       .  S
C216        F224   1.382       .  S
C216        F225   1.382       .  S
C216        F226   1.384       .  S
C230        C231   1.400       .  A
C230        C235   1.407       .  A
C230        H240   1.083       .  S
C231        C232   1.412       .  A
C231        C236   1.483       .  S
C232        C233   1.409       .  A
C232       C1207   1.517       .  S
C233        C234   1.408       .  A
C233       H1208   1.082       .  S
C234        C235   1.424       .  A
C235        C239   1.521       .  S
C236        C245   1.404       .  A
C236       C1211   1.418       .  A
C237       C1202   1.521       .  S
C237        F254   1.381       .  S
C237        F255   1.381       .  S
C237       F1708   1.382       .  S
H238       C1203   1.081       .  S
C239        F250   1.382       .  S
C239        F251   1.385       .  S
C239        F252   1.384       .  S
C241        C242   1.405       .  A
C241       C1206   1.414       .  A
C241        C246   1.516   1_565  S
C242       C1213   1.403       .  A
C242        H247   1.083   1_565  S
C243       C1212   1.401       .  A
C243        C729   1.418       .  A
C243        C513   1.481       .  S
C244        C728   1.419       .  A
C244        C730   1.408       .  A
C244        C248   1.519       .  S
C245        C729   1.408       .  A
C245        H249   1.083       .  S
C246        F259   1.385       .  S
C246        F260   1.381       .  S
C246        F261   1.383       .  S
C248        F256   1.385       .  S
C248        F257   1.380       .  S
C248        F258   1.383   1_556  S
F253       C1692   1.383       .  S
C262        C263   1.398       .  A
C262        C267   1.406       .  A
C262        H272   1.083       .  S
C263       C1234   1.409       .  A
C263        C268   1.472       .  S
C264        C265   1.399       .  A
C264       C1233   1.409       .  A
C264        C269   1.519   1_565  S
C265       C1236   1.411       .  A
C265        H270   1.082   1_565  S
C266        C267   1.425       .  A
C266       C1235   1.410       .  A
C267        C271   1.516       .  S
C268        C277   1.400       .  A
C268       C1243   1.415       .  A
C269        F285   1.383   1_545  S
C269        F286   1.381       .  S
C269        F287   1.384       .  S
C271        F282   1.385       .  S
C271        F283   1.383       .  S
C271        F284   1.378       .  S
C273       C1238   1.417   1_545  A
C273        C759   1.404       .  A
C273        C763   1.517       .  S
C274        C758   1.403   1_554  A
C274       C1245   1.402   1_545  A
C274        H279   1.085       .  S
C275       C1244   1.403   1_554  A
C275        C761   1.417   1_554  A
C276        C277   1.398       .  A
C276        C760   1.417       .  A
C276        C280   1.521       .  S
C277        H281   1.084       .  S
C278        C758   1.518       .  S
C278        F291   1.383       .  S
C278       F1262   1.383   1_556  S
C278        F778   1.381       .  S
C280        F288   1.384       .  S
C280        F289   1.381       .  S
C280        F290   1.383       .  S
F292       C1248   1.383   1_554  S
F293        C763   1.381       .  S
C294        C295   1.403       .  A
C294        C299   1.410       .  A
C294        H304   1.083       .  S
C295        C296   1.416       .  A
C295        C300   1.490       .  S
C296        C297   1.408       .  A
C296       C1271   1.520       .  S
C297        C298   1.407       .  A
C297       H1272   1.083       .  S
C298        C299   1.417       .  A
C299        C303   1.511       .  S
C300        C305   1.418       .  A
C300        C309   1.403       .  A
C301       C1266   1.520       .  S
C301        F318   1.383       .  S
C301        F319   1.384       .  S
C301       F1287   1.382       .  S
H302       C1267   1.083       .  S
C303        F314   1.380       .  S
C303        F315   1.384       .  S
C303        F316   1.383       .  S
C305        C306   1.409       .  A
C305       C1280   1.520       .  S
C306        C307   1.403       .  A
C306        H311   1.083       .  S
C307        C308   1.420       .  A
C308        C309   1.410       .  A
C308        C312   1.520       .  S
C309        H313   1.083       .  S
C310       C1275   1.520   1_545  S
C310        F323   1.384       .  S
C310        F325   1.383       .  S
C310       F1294   1.382       .  S
C312        F320   1.381       .  S
C312        F321   1.384       .  S
C312        F322   1.384       .  S
F317       C1271   1.382       .  S
F324       C1280   1.382       .  S
C326        C327   1.406       .  A
C326        C331   1.412       .  A
C326        H336   1.083       .  S
C327        C328   1.419       .  A
C327        C332   1.491       .  S
C328        C329   1.408       .  A
C328       C1303   1.521       .  S
C329        C330   1.401       .  A
C329        H334   1.083       .  S
C330        C331   1.415       .  A
C331        C335   1.516       .  S
C332        C337   1.415       .  A
C332        C341   1.395       .  A
C333       C1298   1.519   1_545  S
C333        F350   1.381       .  S
C333        F351   1.385       .  S
C333       F1319   1.382       .  S
C335        F346   1.383       .  S
C335        F347   1.383       .  S
C335        F348   1.383       .  S
C337        C338   1.413       .  A
C337       C1312   1.516       .  S
C338        C339   1.409       .  A
C338       H1313   1.082       .  S
C339        C340   1.434       .  A
C340        C341   1.405       .  A
C340        C344   1.525       .  S
C341        H345   1.083       .  S
C342       C1307   1.517       .  S
C342        F355   1.383       .  S
C342        F357   1.383       .  S
C342       F1326   1.382       .  S
H343       C1308   1.084       .  S
C344        F352   1.385       .  S
C344        F353   1.382       .  S
C344        F354   1.382       .  S
F349       C1303   1.382       .  S
F356       C1312   1.381       .  S
C358        C359   1.404       .  A
C358        C848   1.409       .  A
C358        H368   1.083       .  S
C359        C360   1.416       .  A
C359        C364   1.487       .  S
C360        C361   1.408       .  A
C360        C365   1.519       .  S
C361        C847   1.403       .  A
C361        H366   1.083       .  S
C362        C363   1.417       .  A
C362        C846   1.403   1_554  A
C363        C843   1.408   1_554  A
C363        C367   1.520       .  S
C364        C369   1.413       .  A
C364        C373   1.401       .  A
C365        F381   1.382       .  S
C365        F382   1.381       .  S
C365        F383   1.384       .  S
C367        F378   1.385       .  S
C367        F379   1.382       .  S
C367        F380   1.383       .  S
C369        C370   1.405       .  A
C369        C374   1.522       .  S
C370        C371   1.413       .  A
C370        H375   1.082       .  S
C371        C372   1.424       .  A
C372        C373   1.411       .  A
C372        C376   1.517       .  S
C373        H377   1.083       .  S
C374        F387   1.385       .  S
C374        F388   1.382       .  S
C374        F389   1.381       .  S
C376        F384   1.383       .  S
C376        F385   1.381       .  S
C376        F386   1.385       .  S
C390        C391   1.401       .  A
C390        C395   1.406       .  A
C390        H400   1.083       .  S
C391        C392   1.417       .  A
C391        C396   1.481       .  S
C392        C393   1.406       .  A
C392        C397   1.520       .  S
C393        C394   1.402       .  A
C393        H398   1.083       .  S
C394        C395   1.418       .  A
C394        C495   1.479       .  S
C395        C884   1.520       .  S
C396        C401   1.416       .  A
C396        C405   1.400       .  A
C397        F413   1.382       .  S
C397        F414   1.380       .  S
C397        F415   1.385       .  S
C399        C880   1.519       .  S
C399        F410   1.380       .  S
C399        F412   1.383       .  S
C399        F896   1.385       .  S
C401        C402   1.409       .  A
C401        C406   1.518       .  S
C402        C403   1.403       .  A
C402        H407   1.083       .  S
C403        C404   1.417       .  A
C404        C405   1.404       .  A
C404        C408   1.517       .  S
C405        H409   1.083       .  S
C406        F904   1.385       .  S
C406        F905   1.382       .  S
C406        F906   1.381       .  S
C408        F416   1.383       .  S
C408        F417   1.382       .  S
C408        F418   1.385       .  S
F411        C884   1.384       .  S
F419        C891   1.385       .  S
F420        C891   1.383   1_554  S
F421        C891   1.382       .  S
C422        C423   1.400       .  A
C422        C427   1.405       .  A
C422        H432   1.083       .  S
C423        C424   1.415       .  A
C423        C428   1.480       .  S
C424        C425   1.409       .  A
C424        C429   1.520       .  S
C425        C426   1.406       .  A
C425        H430   1.083       .  S
C426        C427   1.418       .  A
C427        C431   1.519       .  S
C428        C433   1.412       .  A
C428        C437   1.403       .  A
C429        F445   1.383       .  S
C429        F446   1.383       .  S
C429        F447   1.384       .  S
C431        F442   1.381       .  S
C431        F443   1.385       .  S
C431        F444   1.383       .  S
C433        C434   1.398       .  A
C433        C438   1.522       .  S
C434        C435   1.408       .  A
C434        H439   1.082       .  S
C435        C436   1.423       .  A
C436        C437   1.413       .  A
C436        C440   1.520       .  S
C437        H441   1.083       .  S
C438        F451   1.385       .  S
C438        F452   1.382       .  S
C438        F453   1.382       .  S
C440        F448   1.383       .  S
C440        F449   1.383       .  S
C440        F450   1.384       .  S
C454        C455   1.402       .  A
C454        C459   1.410       .  A
C454        H464   1.083       .  S
C455        C456   1.418       .  A
C455        C460   1.493       .  S
C456        C457   1.410       .  A
C456        C461   1.520       .  S
C457        C458   1.406       .  A
C457        H462   1.083       .  S
C458        C459   1.422       .  A
C459        C463   1.519       .  S
C460        C465   1.416       .  A
C460        C469   1.402       .  A
C461        F477   1.382       .  S
C461        F478   1.382       .  S
C461        F479   1.385       .  S
C463        F474   1.384       .  S
C463        F475   1.381       .  S
C463        F476   1.384       .  S
C465        C466   1.410       .  A
C465        C470   1.519       .  S
C466        C467   1.407       .  A
C466        H471   1.081       .  S
C467        C468   1.422       .  A
C468        C469   1.411       .  A
C468        C472   1.513       .  S
C469        H473   1.083       .  S
C470        F483   1.384       .  S
C470        F484   1.382       .  S
C470        F485   1.382       .  S
C472        F480   1.378       .  S
C472        F481   1.385       .  S
C472        F482   1.383       .  S
C486        C487   1.402       .  A
C486        C491   1.412       .  A
C486        C943   1.498       .  S
C487        C488   1.396       .  A
C487        H492   1.084       .  S
C488        C489   1.399       .  A
C488        C911   1.476       .  S
C489        C490   1.412       .  A
C489        H493   1.080       .  S
C490        C491   1.423       .  A
C490        C499   1.513       .  S
C491        H494   1.079       .  S
C495        C496   1.398       .  A
C495        C500   1.402       .  A
C496        C497   1.396       .  A
C497        C498   1.407       .  A
C497        C847   1.485       .  S
C498        C499   1.422       .  A
C498        H502   1.079       .  S
C499        C500   1.412       .  A
C500        H503   1.079       .  S
C504        C505   1.403       .  A
C504        C509   1.405       .  A
C504        C792   1.485       .  S
C505        C506   1.399       .  A
C505        H510   1.084       .  S
C506        C507   1.398       .  A
C506        C815   1.481       .  S
C507        C508   1.414       .  A
C507        H511   1.079       .  S
C508        C509   1.413       .  A
C508        C515   1.506       .  S
C509        H512   1.080       .  S
C513        C514   1.408       .  A
C513        C518   1.397       .  A
C514        C515   1.417       .  A
C514        H519   1.080       .  S
C515        C516   1.411       .  A
C516        C517   1.395       .  A
C516        H520   1.079       .  S
C517        C518   1.395       .  A
C517        C760   1.469       .  S
C522        C523   1.402       .  A
C522        C527   1.403       .  A
C522        C696   1.485       .  S
C523        C524   1.413       .  A
C523        H528   1.081       .  S
C524        C525   1.412       .  A
C524        C535   1.504       .  S
C525        C526   1.402       .  A
C525        H529   1.081       .  S
C526        C527   1.402       .  A
C526        C664   1.484       .  S
C527        H530   1.083       .  S
C531        C532   1.404       .  A
C531        C536   1.404       .  A
C532        C533   1.399       .  A
C533        C534   1.401       .  A
C533        C591   1.484       .  S
C534        C535   1.414       .  A
C534        H538   1.081       .  S
C535        C536   1.413       .  A
C536        H539   1.079       .  S
O540       Mn566   2.101       .  S
O540       C2507   1.272   1_455  A
C541        C952   1.501       .  S
C541        O574   1.277       .  A
C541        O571   1.274       .  A
O542       Mn549   2.182       .  S
O542       Mn560   2.120       .  S
O542       Mn564   2.161       .  S
O542      Mn2506   2.118       .  S
O543       Mn577   2.106       .  S
O543        C553   1.273       .  A
O544       Mn560   2.091       .  S
O544        C567   1.273       .  A
O545       Mn564   2.124       .  S
O545        C572   1.255       .  A
O546      Mn1547   1.965       .  S
O546       Mn566   1.973       .  S
O546        C562   1.219       .  S
C547        C600   1.493       .  S
C547        O550   1.251       .  A
C547        O573   1.218       .  S
O548      Mn1538   2.119       .  S
O548       Mn549   2.182       .  S
O548       Mn582   2.123       .  S
O548       Mn564   2.173       .  S
Mn549      O1548   2.141       .  S
Mn549       O554   2.108       .  S
Mn549      O2521   2.143       .  S
Mn549      O3465   2.167       .  S
O550      Mn1534   2.105   1_545  S
O551       Mn558   2.094       .  S
O551        C553   1.272       .  A
C552        C655   1.501       .  S
C552        O578   1.260       .  A
C552        O565   1.211       .  S
C553        C888   1.479       .  S
O554        C579   1.253       .  A
O555      Mn3459   2.163   1_445  S
O555       Mn558   2.121       .  S
O555       Mn577   2.119       .  S
O555      Mn3474   2.166   1_445  S
O556       Mn560   1.948       .  S
O556       Mn582   1.950       .  S
O556        C579   1.218       .  S
C557        C719   1.481       .  S
C557       O1553   1.270       .  A
C557        O559   1.271       .  A
Mn558       O571   2.106       .  S
Mn558      O2513   1.978   1_455  S
Mn558      O2505   1.943   1_455  S
O559       Mn582   2.091       .  S
Mn560       O576   2.092       .  S
Mn560       O570   1.969       .  S
O561       Mn566   2.105       .  S
O561       C2503   1.272   1_455  A
C562        C751   1.493       .  S
C562        O580   1.253       .  A
C563        C687   1.483       .  S
C563       O2501   1.271       .  A
C563        O576   1.271       .  A
Mn564      O1520   2.099       .  S
Mn564      O2520   2.119       .  S
Mn564      O3465   2.173       .  S
O565      Mn2498   1.945       .  S
O565       Mn568   1.957       .  S
Mn566      O2482   2.117   1_455  S
Mn566       O584   1.943       .  S
C567        C632   1.503       .  S
C567       O2480   1.274       .  A
Mn568       O575   2.108       .  S
Mn568       O583   2.090       .  S
Mn568      O1518   2.115   1_545  S
Mn568       O573   1.967       .  S
C569        C783   1.490       .  S
C569       O1545   1.274       .  A
C569        O585   1.271       .  A
O570       Mn582   1.961       .  S
O570        C572   1.220       .  S
C572        C856   1.500       .  S
O573      Mn2498   1.967       .  S
O574       Mn577   2.122       .  S
O575       C1539   1.273   1_545  A
Mn577      O1516   1.967   1_545  S
Mn577      O1554   1.967   1_545  S
O578      Mn1519   2.139   1_545  S
C579        C920   1.494       .  S
O580      Mn2504   2.110   1_455  S
O581      Mn2489   2.133   1_455  S
O581        C586   1.257       .  A
Mn582       O585   2.087       .  S
O583       C1527   1.270   1_545  A
O584      Mn1547   1.959       .  S
O584        C586   1.210       .  S
C586        C824   1.499       .  S
C587        C588   1.400       .  A
C587        C592   1.401       .  A
C587       H2537   1.085       .  S
C588        C589   1.415       .  A
C588        C593   1.480       .  S
C590        C591   1.404       .  A
C590        H595   1.083       .  S
C592       C2536   1.520       .  S
C593        C598   1.413       .  A
C593        C602   1.400       .  A
C594        F610   1.382       .  S
C594        F612   1.384       .  S
C596       C2532   1.519   1_455  S
C596        F607   1.381       .  S
C596        F608   1.385       .  S
C596        F609   1.384   1_556  S
H597       C2527   1.083   1_455  S
C598        C599   1.404       .  A
C598        C603   1.522       .  S
C599        C600   1.410       .  A
C599        H604   1.082       .  S
C600        C601   1.423       .  A
C601        C602   1.408       .  A
C601       C2545   1.515       .  S
C602       H2546   1.083       .  S
C603        F616   1.384       .  S
C603        F617   1.382       .  S
C603        F618   1.381       .  S
C605       C2541   1.514   1_455  S
C605        F613   1.385       .  S
C605        F614   1.382       .  S
C605        F615   1.379   1_455  S
H606       C2542   1.083       .  S
C619        C620   1.401       .  A
C619        C624   1.407   1_556  A
C619        H629   1.083       .  S
C620       C2561   1.416       .  A
C620        C625   1.485       .  S
C621       C2560   1.417   1_455  A
C621        C622   1.405       .  A
C621        C626   1.521       .  S
C622       C2563   1.407   1_456  A
C622        H627   1.082       .  S
C623       C2562   1.405   1_554  A
C623        C624   1.421       .  A
C625        C630   1.414       .  A
C625        C634   1.397       .  A
C626        F642   1.381       .  S
C626        F643   1.383   1_455  S
C626        F644   1.385       .  S
C628        F640   1.381       .  S
C628        F641   1.383       .  S
C630        C631   1.407       .  A
C630        C635   1.521       .  S
C631        C632   1.413       .  A
C631        H636   1.082       .  S
C632        C633   1.426       .  A
C633        C634   1.407       .  A
C633       C2577   1.512       .  S
C634       H2578   1.083       .  S
C635        F648   1.385       .  S
C635        F649   1.381       .  S
C635        F650   1.383       .  S
C637       C2573   1.519       .  S
C637       F2585   1.383       .  S
C637        F646   1.385       .  S
C637        F647   1.374       .  S
H638       C2574   1.083       .  S
F645       C2577   1.383       .  S
C651        C652   1.394       .  A
C651        C656   1.405       .  A
C651        H661   1.083       .  S
C652       C2593   1.413       .  A
C652        C657   1.487       .  S
C653       C2592   1.415   1_455  A
C653        C654   1.414       .  A
C653        C658   1.517       .  S
C654       C2595   1.410   1_455  A
C654        H659   1.083       .  S
C655       C2594   1.410       .  A
C655        C656   1.435       .  A
C656        C660   1.526       .  S
C657        C662   1.417       .  A
C657       C2606   1.405       .  A
C658        F674   1.383       .  S
C658       F2615   1.383   1_455  S
C658        F676   1.384       .  S
C660        F671   1.385       .  S
C660        F672   1.383       .  S
C660        F673   1.381       .  S
C662        C663   1.404       .  A
C662        C667   1.519       .  S
C663        C664   1.402       .  A
C663        H668   1.083       .  S
C664       C2605   1.416       .  A
C665       C2604   1.413       .  A
C665        C666   1.411       .  A
C665        C669   1.515       .  S
C666       C2597   1.406   1_455  A
C666        H670   1.083       .  S
C667        F680   1.385       .  S
C667        F681   1.382       .  S
C667        F682   1.380       .  S
C669        F677   1.383       .  S
C669        F678   1.383       .  S
C669        F679   1.384       .  S
F675       C2598   1.382       .  S
C683       C2624   1.400   1_455  A
C683        C688   1.408       .  A
C683        H693   1.083       .  S
C684       C2623   1.400       .  A
C684        C685   1.417       .  A
C684        C689   1.488       .  S
C685        C686   1.409       .  A
C685        C690   1.519       .  S
C686        C687   1.405       .  A
C686        H691   1.083       .  S
C687       C2628   1.421       .  A
C688       C2627   1.424   1_455  A
C688        C692   1.520       .  S
C689       C2634   1.416       .  A
C689        C698   1.403       .  A
C690        F706   1.382       .  S
C690        F707   1.382       .  S
C690        F708   1.385       .  S
C692        F703   1.382       .  S
C692        F704   1.385       .  S
C692        F705   1.383       .  S
C694       C2629   1.416   1_455  A
C694        C695   1.409       .  A
C694        C699   1.519       .  S
C695       C2636   1.406   1_455  A
C695        H700   1.083       .  S
C696       C2635   1.402       .  A
C696        C697   1.417       .  A
C697        C698   1.409       .  A
C697        C701   1.518       .  S
C698        H702   1.083       .  S
C699        F712   1.384       .  S
C699        F713   1.381       .  S
C699        F714   1.381       .  S
C701        F709   1.381       .  S
C701        F710   1.383       .  S
C701        F711   1.384       .  S
C715        C716   1.402       .  A
C715        C720   1.408       .  A
C715        H725   1.083       .  S
C716        C717   1.414       .  A
C716        C721   1.485       .  S
C717        C718   1.406       .  A
C717       C1692   1.516       .  S
C718        C719   1.403       .  A
C718       H1693   1.083       .  S
C719        C720   1.422       .  A
C720        C724   1.521       .  S
C721       C1696   1.415       .  A
C721        C730   1.402       .  A
C722       C1687   1.519       .  S
C722       F1223   1.382       .  S
C722        F739   1.383   1_556  S
C722        F740   1.383       .  S
H723       C1688   1.081       .  S
C724        F735   1.383       .  S
C724        F736   1.384       .  S
C724        F737   1.384       .  S
C726       C1691   1.416       .  A
C726        C727   1.404   1_556  A
C726        C731   1.519   1_565  S
C727       C1698   1.402   1_554  A
C727        H732   1.083   1_565  S
C728       C1697   1.403   1_556  A
C729        C733   1.519       .  S
C730        H734   1.083       .  S
C731        F744   1.385   1_556  S
C731        F745   1.382       .  S
C731        F746   1.382       .  S
C733        F741   1.385       .  S
C733        F742   1.381       .  S
C733        F743   1.383       .  S
F738       C1207   1.382       .  S
C747        C748   1.401       .  A
C747        C752   1.409       .  A
C747        H757   1.083       .  S
C748       C1719   1.412       .  A
C748        C753   1.481       .  S
C749       C1718   1.410       .  A
C749        C750   1.399       .  A
C749        C754   1.521   1_565  S
C750       C1721   1.410       .  A
C750        H755   1.082   1_565  S
C751       C1720   1.411       .  A
C751        C752   1.423       .  A
C752        C756   1.517       .  S
C753       C1728   1.418       .  A
C753        C762   1.402       .  A
C754        F770   1.383   1_545  S
C754        F771   1.381       .  S
C754        F772   1.384       .  S
C756        F767   1.385       .  S
C756        F768   1.383       .  S
C756        F769   1.378       .  S
C758       C1723   1.417   1_545  A
C759       C1730   1.402   1_545  A
C759        H764   1.085       .  S
C760       C1729   1.403       .  A
C761        C762   1.401       .  A
C761        C765   1.521       .  S
C762        H766   1.084       .  S
C763        F776   1.383       .  S
C763       F1747   1.383       .  S
C765        F773   1.384   1_556  S
C765        F774   1.381   1_556  S
C765        F775   1.383       .  S
F777       C1733   1.383       .  S
C779        C780   1.401       .  A
C779        C784   1.408       .  A
C779        H789   1.083       .  S
C780        C781   1.417       .  A
C780        C785   1.489       .  S
C781        C782   1.407       .  A
C781       C1756   1.520       .  S
C782        C783   1.407       .  A
C782       H1757   1.083       .  S
C783        C784   1.418       .  A
C784        C788   1.511       .  S
C785        C790   1.419       .  A
C785        C794   1.403       .  A
C786       C1751   1.521       .  S
C786       F1772   1.382       .  S
C786        F803   1.383       .  S
C786        F804   1.384       .  S
H787       C1752   1.083       .  S
C788        F799   1.380       .  S
C788        F800   1.382       .  S
C788        F801   1.381       .  S
C790        C791   1.405       .  A
C790       C1765   1.520       .  S
C791        C792   1.402       .  A
C791        H796   1.083       .  S
C792        C793   1.420       .  A
C793        C794   1.409       .  A
C793        C797   1.520       .  S
C794        H798   1.083       .  S
C795       C1760   1.519   1_545  S
C795        F808   1.385       .  S
C795       F1779   1.382       .  S
C795        F810   1.382       .  S
C797        F805   1.381       .  S
C797        F806   1.383       .  S
C797        F807   1.385       .  S
F802       C1756   1.382       .  S
F809       C1765   1.382       .  S
C811        C812   1.404       .  A
C811        C816   1.409       .  A
C811        H821   1.083       .  S
C812        C813   1.418       .  A
C812        C817   1.485       .  S
C813        C814   1.407       .  A
C813       C1788   1.521       .  S
C814        C815   1.403       .  A
C814        H819   1.083       .  S
C815        C816   1.413       .  A
C816        C820   1.516       .  S
C817        C822   1.414       .  A
C817        C826   1.393       .  A
C818       C1783   1.519   1_545  S
C818       F1804   1.383       .  S
C818        F835   1.382       .  S
C818        F836   1.384       .  S
C820        F831   1.383       .  S
C820        F832   1.383       .  S
C820        F833   1.383       .  S
C822        C823   1.412       .  A
C822       C1797   1.517       .  S
C823        C824   1.410       .  A
C823       H1798   1.082       .  S
C824        C825   1.434       .  A
C825        C826   1.403       .  A
C825        C829   1.526       .  S
C826        H830   1.083       .  S
C827       C1792   1.516       .  S
C827        F840   1.384       .  S
C827       F1811   1.382       .  S
C827        F842   1.382       .  S
H828       C1793   1.084       .  S
C829        F837   1.385       .  S
C829        F838   1.382       .  S
C829        F839   1.382       .  S
F834       C1788   1.383       .  S
F841       C1797   1.382       .  S
C843        C844   1.403       .  A
C843        H853   1.079       .  S
C844        C845   1.417       .  A
C844        C849   1.490       .  S
C845        C846   1.409       .  A
C845        C850   1.519       .  S
C846        H851   1.083       .  S
C847        C848   1.417       .  A
C848        C852   1.517       .  S
C849        C854   1.413       .  A
C849        C858   1.403       .  A
C850        F866   1.382       .  S
C850        F867   1.382       .  S
C850        F868   1.384       .  S
C852        F863   1.385       .  S
C852        F864   1.383       .  S
C852        F865   1.382       .  S
C854        C855   1.406       .  A
C854        C859   1.521       .  S
C855        C856   1.410       .  A
C855        H860   1.082       .  S
C856        C857   1.422       .  A
C857        C858   1.414       .  A
C857        C861   1.514       .  S
C858        H862   1.083       .  S
C859        F872   1.384       .  S
C859        F873   1.382       .  S
C859        F874   1.382       .  S
C861        F869   1.382       .  S
C861        F870   1.382       .  S
C861        F871   1.385       .  S
C875        C876   1.404       .  A
C875        C880   1.411   1_556  A
C875        H885   1.083       .  S
C876        C877   1.417       .  A
C876        C881   1.488       .  S
C877        C878   1.406       .  A
C877        C882   1.520       .  S
C878        C879   1.403   1_556  A
C878        H883   1.083       .  S
C879        C880   1.419       .  A
C881        C886   1.418       .  A
C881        C890   1.399       .  A
C882        F898   1.382       .  S
C882        F899   1.382       .  S
C882        F900   1.385       .  S
C884        F895   1.381       .  S
C884        F897   1.384       .  S
C886        C887   1.413       .  A
C886        C891   1.517       .  S
C887        C888   1.404       .  A
C887        H892   1.083       .  S
C888        C889   1.416       .  A
C889        C890   1.404       .  A
C889        C893   1.518       .  S
C890        H894   1.083       .  S
C893        F901   1.382       .  S
C893        F902   1.383       .  S
C893        F903   1.384       .  S
C907        C908   1.403       .  A
C907        C912   1.406       .  A
C907        H917   1.083       .  S
C908        C909   1.416       .  A
C908        C913   1.481       .  S
C909        C910   1.405       .  A
C909        C914   1.521       .  S
C910        C911   1.401       .  A
C910        H915   1.083       .  S
C911        C912   1.414       .  A
C912        C916   1.517       .  S
C913        C918   1.411       .  A
C913        C922   1.401       .  A
C914        F930   1.382       .  S
C914        F931   1.382       .  S
C914        F932   1.385       .  S
C916        F927   1.383       .  S
C916        F928   1.385       .  S
C916        F929   1.382       .  S
C918        C919   1.401       .  A
C918        C923   1.523       .  S
C919        C920   1.412       .  A
C919        H924   1.082       .  S
C920        C921   1.423       .  A
C921        C922   1.410       .  A
C921        C925   1.519       .  S
C922        H926   1.083       .  S
C923        F936   1.385       .  S
C923        F937   1.382       .  S
C923        F938   1.382       .  S
C925        F933   1.383       .  S
C925        F934   1.382       .  S
C925        F935   1.384       .  S
C939        C940   1.405       .  A
C939        C944   1.414       .  A
C939        H949   1.084       .  S
C940        C941   1.416       .  A
C940        C945   1.497       .  S
C941        C942   1.407       .  A
C941        C946   1.520       .  S
C942        C943   1.407       .  A
C942        H947   1.083       .  S
C943        C944   1.424       .  A
C944        C948   1.520       .  S
C945        C950   1.416       .  A
C945        C954   1.402       .  A
C946        F962   1.382       .  S
C946        F963   1.383       .  S
C946        F964   1.385       .  S
C948        F959   1.384       .  S
C948        F960   1.383       .  S
C948        F961   1.381       .  S
C950        C951   1.411       .  A
C950        C955   1.519       .  S
C951        C952   1.409       .  A
C951        H956   1.082       .  S
C952        C953   1.422       .  A
C953        C954   1.412       .  A
C953        C957   1.514       .  S
C954        H958   1.083       .  S
C955        F968   1.385       .  S
C955        F969   1.382       .  S
C955        F970   1.383       .  S
C957        F965   1.380       .  S
C957        F966   1.384       .  S
C957        F967   1.383       .  S
C971        C972   1.402       .  A
C971        C976   1.410       .  A
C971       C1428   1.492       .  S
C972        C973   1.398       .  A
C972        H977   1.084       .  S
C973        C974   1.397       .  A
C973       C1396   1.476       .  S
C974        C975   1.411       .  A
C974        H978   1.080       .  S
C975        C976   1.420       .  A
C975        C984   1.511       .  S
C976        H979   1.078       .  S
C980        C981   1.401       .  A
C980        C985   1.404       .  A
C980       C1849   1.485       .  S
C981        C982   1.399       .  A
C981       H1471   1.084   1_554  S
C982        C983   1.403       .  A
C982       C1332   1.488       .  S
C983        C984   1.419       .  A
C983        H987   1.079       .  S
C984        C985   1.413       .  A
C985        H988   1.079       .  S
H986       C1466   1.083       .  S
C989        C990   1.404       .  A
C989        C994   1.401       .  A
C989       C1277   1.482       .  S
C990        C991   1.402       .  A
C990        H995   1.083       .  S
C991        C992   1.398       .  A
C991       C1300   1.481       .  S
C992        C993   1.409       .  A
C992        H996   1.081       .  S
C993        C994   1.408       .  A
C993       C1000   1.496       .  S
C994        H997   1.081       .  S
C998        C999   1.402       .  A
C998       C1003   1.398       .  A
C998       C1698   1.475   1_554  S
C999       C1000   1.412       .  A
C999       H1004   1.081       .  S
C1000      C1001   1.408       .  A
C1001      C1002   1.395       .  A
C1001      H1005   1.081       .  S
C1002      C1003   1.397       .  A
C1002      C1245   1.470       .  S
C1003      H1491   1.084   1_554  S
H1006      C1488   1.084       .  S
C1007      C1008   1.402       .  A
C1007      C1012   1.401       .  A
C1007      C1181   1.483       .  S
C1008      C1009   1.413       .  A
C1008      H1013   1.080       .  S
C1009      C1010   1.413       .  A
C1009      C1020   1.505       .  S
C1010      C1011   1.401       .  A
C1010      H1014   1.081       .  S
C1011      C1012   1.399       .  A
C1011      C1149   1.480       .  S
C1012      H1015   1.083       .  S
C1016      C1017   1.407       .  A
C1016      C1021   1.407       .  A
C1016      C1593   1.499       .  S
C1017      C1018   1.398       .  A
C1017      H1507   1.083   1_554  S
C1018      C1019   1.397       .  A
C1018      C1076   1.480       .  S
C1019      C1020   1.411       .  A
C1019      H1023   1.081       .  S
C1020      C1021   1.415       .  A
C1021      H1024   1.076       .  S
H1022      C1502   1.084       .  S
O1025     Mn1051   2.089       .  S
O1025      C2992   1.269   1_455  A
C1026      C1437   1.495       .  S
C1026      O1059   1.278       .  A
C1026      O1056   1.270       .  A
O1027     Mn1034   2.188       .  S
O1027     Mn1045   2.120       .  S
O1027     Mn1049   2.170       .  S
O1027     Mn2991   2.115       .  S
O1028     Mn1062   2.095       .  S
O1028      C1038   1.270       .  A
O1029     Mn1045   2.102       .  S
O1029      C1052   1.275       .  A
O1030     Mn1049   2.111       .  S
O1030      C1057   1.253       .  A
O1031     Mn1051   1.967       .  S
O1031      C1047   1.219       .  S
C1032      C1085   1.498       .  S
C1032      O1035   1.253       .  A
C1032      O1058   1.217       .  S
O1033     Mn1034   2.180       .  S
O1033     Mn1067   2.123       .  S
O1033     Mn1049   2.166       .  S
Mn1034     O1039   2.114       .  S
Mn1034     O3006   2.140       .  S
Mn1034     O2010   2.174   1_565  S
O1036     Mn1043   2.106       .  S
O1036      C1038   1.274       .  A
C1037      C1140   1.499       .  S
C1037      O1063   1.260       .  A
C1037      O1050   1.207       .  S
C1038      C1373   1.478       .  S
O1039      C1064   1.253       .  A
O1040     Mn2004   2.175   1_455  S
O1040     Mn1043   2.119       .  S
O1040     Mn1062   2.113       .  S
O1040     Mn2019   2.171   1_455  S
O1041     Mn1045   1.950       .  S
O1041     Mn1067   1.945       .  S
O1041      C1064   1.219       .  S
C1042      C1204   1.483       .  S
C1042      O1044   1.271       .  A
Mn1043     O1056   2.086       .  S
Mn1043     O2998   1.962   1_455  S
Mn1043     O2990   1.945   1_455  S
O1044     Mn1067   2.088       .  S
Mn1045     O1061   2.086       .  S
Mn1045     O1055   1.963       .  S
O1046     Mn1051   2.102       .  S
O1046      C2988   1.271   1_455  A
C1047      C1236   1.492       .  S
C1047      O1065   1.252       .  A
C1048      C1172   1.486       .  S
C1048      O2986   1.271       .  A
C1048      O1061   1.270       .  A
Mn1049     O3005   2.105       .  S
Mn1049     O2010   2.172   1_565  S
O1050     Mn2983   1.944       .  S
O1050     Mn1053   1.954       .  S
Mn1051     O2967   2.115   1_455  S
Mn1051     O1069   1.942       .  S
C1052      C1117   1.508       .  S
C1052      O2965   1.270       .  A
Mn1053     O1060   2.118       .  S
Mn1053     O1068   2.098       .  S
Mn1053     O1058   1.973       .  S
C1054      C1268   1.486       .  S
C1054      O1070   1.270       .  A
O1055     Mn1067   1.959       .  S
O1055      C1057   1.219       .  S
C1057      C1341   1.497       .  S
O1058     Mn2983   1.974       .  S
O1059     Mn1062   2.126       .  S
C1064      C1405   1.495       .  S
O1065     Mn2989   2.109   1_455  S
O1066     Mn2974   2.122   1_455  S
O1066      C1071   1.256       .  A
Mn1067     O1070   2.081       .  S
O1069      C1071   1.210       .  S
C1071      C1309   1.495       .  S
C1072      C1073   1.400       .  A
C1072      C1077   1.404       .  A
C1072      H3022   1.083       .  S
C1073      C1074   1.416       .  A
C1073      C1078   1.485       .  S
C1074      C1560   1.410       .  A
C1074      C1564   1.517       .  S
C1075      C1559   1.409       .  A
C1075      C1076   1.402   1_556  A
C1075      H1080   1.083       .  S
C1076      C1562   1.419       .  A
C1077      C1561   1.417       .  A
C1077      C3021   1.519       .  S
C1078      C1083   1.413       .  A
C1078      C1087   1.401       .  A
C1079      C1559   1.517       .  S
C1079      F1095   1.382       .  S
C1079      F1581   1.382       .  S
C1079      F1097   1.385       .  S
C1081      C3017   1.520       .  S
C1081      F1092   1.380       .  S
C1081      F1093   1.384       .  S
C1081      F1094   1.384       .  S
H1082      C3012   1.083       .  S
C1083      C1084   1.405       .  A
C1083      C1088   1.522       .  S
C1084      C1085   1.410       .  A
C1084      H1089   1.081       .  S
C1085      C1086   1.422       .  A
C1086      C1087   1.411       .  A
C1086      C3030   1.514       .  S
C1087      H3031   1.083       .  S
C1088      F1101   1.384       .  S
C1088      F1102   1.383       .  S
C1088      F1103   1.381       .  S
C1090      C3026   1.512   1_455  S
C1090      F1098   1.385       .  S
C1090      F1099   1.379       .  S
C1090      F1100   1.378   1_455  S
H1091      C3027   1.083       .  S
F1096      C1564   1.381       .  S
C1104      C1105   1.404       .  A
C1104      C1109   1.411       .  A
C1104      H1114   1.083       .  S
C1105      C3046   1.417       .  A
C1105      C1110   1.493       .  S
C1106      C3045   1.416   1_455  A
C1106      C1107   1.404       .  A
C1106      C1111   1.522       .  S
C1107      C3048   1.407   1_455  A
C1107      H1112   1.081       .  S
C1108      C3047   1.406       .  A
C1108      C1109   1.423       .  A
C1108      C1501   1.497       .  S
C1109      C1598   1.521       .  S
C1110      C1115   1.415       .  A
C1110      C1119   1.398       .  A
C1111      F1127   1.382       .  S
C1111      F1128   1.383       .  S
C1111      F1129   1.385       .  S
C1113      C1594   1.522       .  S
C1113      F1609   1.385       .  S
C1113      F1125   1.381       .  S
C1113      F1126   1.383       .  S
C1115      C1116   1.409       .  A
C1115      C1120   1.521       .  S
C1116      C1117   1.414       .  A
C1116      H1121   1.082       .  S
C1117      C1118   1.430       .  A
C1118      C1119   1.409       .  A
C1118      C3062   1.519       .  S
C1119      H3063   1.083       .  S
C1120      F1133   1.385       .  S
C1120      F1134   1.380       .  S
C1120      F1135   1.383       .  S
C1122      C3058   1.518       .  S
C1122      F3070   1.383       .  S
C1122      F1131   1.384       .  S
C1122      F1132   1.374       .  S
H1123      C3059   1.083       .  S
F1124      C1598   1.385       .  S
F1130      C3062   1.384       .  S
C1136      C1137   1.392       .  A
C1136      C1141   1.403       .  A
C1136      H1146   1.083       .  S
C1137      C3078   1.413       .  A
C1137      C1142   1.485       .  S
C1138      C3077   1.414   1_455  A
C1138      C1139   1.412       .  A
C1138      C1143   1.518       .  S
C1139      C3080   1.409   1_455  A
C1139      H1144   1.082       .  S
C1140      C3079   1.408       .  A
C1140      C1141   1.438       .  A
C1141      C1145   1.527       .  S
C1142      C1147   1.418       .  A
C1142      C3091   1.404       .  A
C1143      F1159   1.383       .  S
C1143      F3100   1.381   1_455  S
C1143      F1161   1.384       .  S
C1145      F1156   1.385       .  S
C1145      F1157   1.381       .  S
C1145      F1158   1.382       .  S
C1147      C1148   1.406       .  A
C1147      C1152   1.521       .  S
C1148      C1149   1.401       .  A
C1148      H1153   1.083       .  S
C1149      C3090   1.414       .  A
C1150      C3089   1.415       .  A
C1150      C1151   1.410       .  A
C1150      C1154   1.517       .  S
C1151      C3082   1.405   1_455  A
C1151      H1155   1.083       .  S
C1152      F1165   1.384       .  S
C1152      F1166   1.382       .  S
C1152      F1167   1.380       .  S
C1154      F1162   1.382       .  S
C1154      F1163   1.383       .  S
C1154      F1164   1.384       .  S
F1160      C3083   1.382       .  S
C1168      C3109   1.400   1_455  A
C1168      C1173   1.408       .  A
C1168      H1178   1.083       .  S
C1169      C3108   1.401       .  A
C1169      C1170   1.415       .  A
C1169      C1174   1.486       .  S
C1170      C1171   1.409       .  A
C1170      C1175   1.519       .  S
C1171      C1172   1.408       .  A
C1171      H1176   1.083       .  S
C1172      C3113   1.421       .  A
C1173      C3112   1.425   1_455  A
C1173      C1177   1.521       .  S
C1174      C3119   1.417       .  A
C1174      C1183   1.403       .  A
C1175      F1191   1.382       .  S
C1175      F1192   1.382       .  S
C1175      F1193   1.384       .  S
C1177      F1188   1.383       .  S
C1177      F1189   1.385       .  S
C1177      F1190   1.383       .  S
C1179      C3114   1.419   1_455  A
C1179      C1180   1.407       .  A
C1179      C1184   1.519       .  S
C1180      C3121   1.403   1_455  A
C1180      H1185   1.083       .  S
C1181      C3120   1.404       .  A
C1181      C1182   1.416       .  A
C1182      C1183   1.406       .  A
C1182      C1186   1.518       .  S
C1183      H1187   1.083       .  S
C1184      F1197   1.385       .  S
C1184      F1198   1.381       .  S
C1184      F1199   1.381       .  S
C1186      F1194   1.382       .  S
C1186      F1195   1.384       .  S
C1186      F1196   1.385       .  S
C1200      C1201   1.401       .  A
C1200      C1205   1.406       .  A
C1200      H1210   1.083   1_565  S
C1201      C1202   1.416       .  A
C1201      C1206   1.478       .  S
C1202      C1203   1.403       .  A
C1203      C1204   1.404       .  A
C1204      C1205   1.421       .  A
C1205      C1209   1.521   1_565  S
C1206      C1215   1.400       .  A
C1207      F1224   1.383       .  S
C1207      F1225   1.381       .  S
C1209      F1220   1.382       .  S
C1209      F1221   1.384       .  S
C1209      F1222   1.384   1_545  S
C1211      C1212   1.402       .  A
C1211      C1216   1.519       .  S
C1212      H1217   1.085       .  S
C1213      C1699   1.418       .  A
C1213      C1483   1.475       .  S
C1214      C1698   1.416       .  A
C1214      C1700   1.403       .  A
C1214      C1218   1.517       .  S
C1215      C1699   1.402       .  A
C1215      H1219   1.085       .  S
C1216      F1229   1.384       .  S
C1216      F1230   1.383       .  S
C1216      F1231   1.381       .  S
C1218      F1226   1.385       .  S
C1218      F1227   1.382       .  S
C1218      F1228   1.383       .  S
C1232      C1233   1.398       .  A
C1232      C1237   1.406       .  A
C1232      H1242   1.083       .  S
C1233      C1238   1.474       .  S
C1234      C1235   1.400       .  A
C1234      C1239   1.519       .  S
C1235      H1240   1.082       .  S
C1236      C1237   1.425       .  A
C1237      C1241   1.513       .  S
C1238      C1247   1.401       .  A
C1239      F1255   1.383       .  S
C1239      F1256   1.382       .  S
C1239      F1257   1.385       .  S
C1241      F1252   1.385       .  S
C1241      F1253   1.382       .  S
C1241      F1254   1.375       .  S
C1243      C1729   1.403       .  A
C1243      C1733   1.517       .  S
C1244      C1728   1.406       .  A
C1244      H1249   1.085   1_556  S
C1245      C1731   1.414   1_554  A
C1246      C1730   1.413       .  A
C1246      C1247   1.400       .  A
C1246      C1250   1.518       .  S
C1247      H1251   1.082       .  S
C1248      C1728   1.517       .  S
C1248      F1261   1.383       .  S
C1248      F1748   1.381       .  S
C1250      F1258   1.384       .  S
C1250      F1259   1.383       .  S
C1250      F1260   1.380       .  S
F1263      C1733   1.381       .  S
C1264      C1265   1.401       .  A
C1264      C1269   1.408       .  A
C1264      H1274   1.083   1_565  S
C1265      C1266   1.414       .  A
C1265      C1270   1.483       .  S
C1266      C1267   1.404       .  A
C1267      C1268   1.407       .  A
C1268      C1269   1.418       .  A
C1269      C1273   1.512   1_565  S
C1270      C1275   1.416       .  A
C1270      C1279   1.401       .  A
C1271      F1288   1.383       .  S
C1271      F1289   1.384       .  S
C1273      F1284   1.381       .  S
C1273      F1285   1.383       .  S
C1273      F1286   1.381       .  S
C1275      C1276   1.406       .  A
C1276      C1277   1.403       .  A
C1276      H1281   1.083   1_565  S
C1277      C1278   1.421       .  A
C1278      C1279   1.407       .  A
C1278      C1282   1.521       .  S
C1279      H1283   1.083       .  S
C1280      F1293   1.384       .  S
C1280      F1295   1.383       .  S
C1282      F1290   1.381       .  S
C1282      F1291   1.384       .  S
C1282      F1292   1.384       .  S
C1296      C1297   1.405       .  A
C1296      C1301   1.409       .  A
C1296      H1306   1.083       .  S
C1297      C1298   1.415       .  A
C1297      C1302   1.482       .  S
C1298      C1299   1.404       .  A
C1299      C1300   1.403       .  A
C1299      H1304   1.083       .  S
C1300      C1301   1.415       .  A
C1301      C1305   1.517       .  S
C1302      C1307   1.416       .  A
C1302      C1311   1.397       .  A
C1303      F1320   1.382       .  S
C1303      F1321   1.384       .  S
C1305      F1316   1.384       .  S
C1305      F1317   1.381       .  S
C1305      F1318   1.383       .  S
C1307      C1308   1.407       .  A
C1308      C1309   1.407       .  A
C1309      C1310   1.432       .  A
C1310      C1311   1.404       .  A
C1310      C1314   1.525       .  S
C1311      H1315   1.083       .  S
C1312      F1325   1.385       .  S
C1312      F1327   1.382       .  S
C1314      F1322   1.385       .  S
C1314      F1323   1.383       .  S
C1314      F1324   1.381   1_565  S
C1328      C1329   1.403       .  A
C1328      C1818   1.408       .  A
C1328      H1338   1.082       .  S
C1329      C1330   1.415       .  A
C1329      C1334   1.486       .  S
C1330      C1331   1.408       .  A
C1330      C1335   1.519       .  S
C1331      C1817   1.405       .  A
C1331      H1336   1.083       .  S
C1332      C1816   1.405       .  A
C1332      C1333   1.417   1_554  A
C1333      C1813   1.409       .  A
C1333      C1337   1.518       .  S
C1334      C1339   1.413       .  A
C1334      C1343   1.402       .  A
C1335      F1351   1.382       .  S
C1335      F1352   1.381       .  S
C1335      F1353   1.384       .  S
C1337      F1348   1.385       .  S
C1337      F1349   1.383   1_556  S
C1337      F1350   1.381       .  S
C1339      C1340   1.404       .  A
C1339      C1344   1.522       .  S
C1340      C1341   1.411       .  A
C1340      H1345   1.082       .  S
C1341      C1342   1.424       .  A
C1342      C1343   1.412       .  A
C1342      C1346   1.519       .  S
C1343      H1347   1.083       .  S
C1344      F1357   1.385       .  S
C1344      F1358   1.382       .  S
C1344      F1359   1.382       .  S
C1346      F1354   1.382       .  S
C1346      F1355   1.380       .  S
C1346      F1356   1.384       .  S
C1360      C1361   1.401       .  A
C1360      C1365   1.406       .  A
C1360      H1370   1.083       .  S
C1361      C1362   1.418       .  A
C1361      C1366   1.482       .  S
C1362      C1363   1.405       .  A
C1362      C1367   1.518       .  S
C1363      C1364   1.400       .  A
C1363      H1368   1.083       .  S
C1364      C1365   1.417       .  A
C1364      C1465   1.476       .  S
C1365      C1854   1.520       .  S
C1366      C1371   1.416       .  A
C1366      C1375   1.399       .  A
C1367      F1383   1.382       .  S
C1367      F1384   1.380       .  S
C1367      F1385   1.385       .  S
C1369      C1850   1.521       .  S
C1369      F1380   1.381       .  S
C1369      F1866   1.384       .  S
C1369      F1382   1.384       .  S
C1371      C1372   1.411       .  A
C1371      C1376   1.518       .  S
C1372      C1373   1.404       .  A
C1372      H1377   1.080       .  S
C1373      C1374   1.416       .  A
C1374      C1375   1.402       .  A
C1374      C1378   1.515       .  S
C1375      H1379   1.083       .  S
C1376      F1874   1.385       .  S
C1376      F1875   1.383       .  S
C1376      F1876   1.381       .  S
C1378      F1386   1.382       .  S
C1378      F1387   1.382       .  S
C1378      F1388   1.385       .  S
F1381      C1854   1.385       .  S
F1389      C1861   1.385       .  S
F1390      C1861   1.382   1_554  S
F1391      C1861   1.382       .  S
C1392      C1393   1.402       .  A
C1392      C1397   1.405       .  A
C1392      H1402   1.083       .  S
C1393      C1394   1.416       .  A
C1393      C1398   1.481       .  S
C1394      C1395   1.406       .  A
C1394      C1399   1.520       .  S
C1395      C1396   1.402       .  A
C1395      H1400   1.083       .  S
C1396      C1397   1.414       .  A
C1397      C1401   1.516       .  S
C1398      C1403   1.411       .  A
C1398      C1407   1.402       .  A
C1399      F1415   1.382       .  S
C1399      F1416   1.383       .  S
C1399      F1417   1.385       .  S
C1401      F1412   1.383       .  S
C1401      F1413   1.385       .  S
C1401      F1414   1.382       .  S
C1403      C1404   1.399       .  A
C1403      C1408   1.523       .  S
C1404      C1405   1.411       .  A
C1404      H1409   1.082       .  S
C1405      C1406   1.425       .  A
C1406      C1407   1.412       .  A
C1406      C1410   1.519       .  S
C1407      H1411   1.083       .  S
C1408      F1421   1.385       .  S
C1408      F1422   1.382       .  S
C1408      F1423   1.383       .  S
C1410      F1418   1.383       .  S
C1410      F1419   1.381       .  S
C1410      F1420   1.385       .  S
C1424      C1425   1.407       .  A
C1424      C1429   1.415       .  A
C1424      H1434   1.083       .  S
C1425      C1426   1.419       .  A
C1425      C1430   1.496       .  S
C1426      C1427   1.407       .  A
C1426      C1431   1.521       .  S
C1427      C1428   1.403       .  A
C1427      H1432   1.083       .  S
C1428      C1429   1.419       .  A
C1429      C1433   1.519       .  S
C1430      C1435   1.416       .  A
C1430      C1439   1.405       .  A
C1431      F1447   1.381       .  S
C1431      F1448   1.383       .  S
C1431      F1449   1.384       .  S
C1433      F1444   1.384       .  S
C1433      F1445   1.381       .  S
C1433      F1446   1.384       .  S
C1435      C1436   1.408       .  A
C1435      C1440   1.520       .  S
C1436      C1437   1.408       .  A
C1436      H1441   1.080       .  S
C1437      C1438   1.418       .  A
C1438      C1439   1.412       .  A
C1438      C1442   1.515       .  S
C1439      H1443   1.083       .  S
C1440      F1453   1.385       .  S
C1440      F1454   1.382       .  S
C1440      F1455   1.383       .  S
C1442      F1450   1.381       .  S
C1442      F1451   1.384       .  S
C1442      F1452   1.383       .  S
C1456      C1457   1.402       .  A
C1456      C1461   1.404       .  A
C1456      C1913   1.490       .  S
C1457      C1458   1.400       .  A
C1457      H1462   1.084       .  S
C1458      C1459   1.396       .  A
C1458      C1881   1.474       .  S
C1459      C1460   1.410       .  A
C1459      H1463   1.078       .  S
C1460      C1461   1.418       .  A
C1460      C1469   1.510       .  S
C1461      H1464   1.076       .  S
C1465      C1466   1.398       .  A
C1465      C1470   1.397       .  A
C1466      C1467   1.398       .  A
C1467      C1468   1.403       .  A
C1467      C1817   1.484       .  S
C1468      C1469   1.419       .  A
C1468      H1472   1.078       .  S
C1469      C1470   1.412       .  A
C1470      H1473   1.079       .  S
C1474      C1475   1.400       .  A
C1474      C1479   1.402       .  A
C1474      C1762   1.483       .  S
C1475      C1476   1.401       .  A
C1475      H1480   1.084       .  S
C1476      C1477   1.403       .  A
C1476      C1785   1.483       .  S
C1477      C1478   1.414       .  A
C1477      H1481   1.081       .  S
C1478      C1479   1.412       .  A
C1478      C1485   1.503       .  S
C1479      H1482   1.081       .  S
C1483      C1484   1.403       .  A
C1483      C1488   1.396       .  A
C1484      C1485   1.415       .  A
C1484      H1489   1.081       .  S
C1485      C1486   1.412       .  A
C1486      C1487   1.401       .  A
C1486      H1490   1.081       .  S
C1487      C1488   1.394       .  A
C1487      C1730   1.472       .  S
C1492      C1493   1.406       .  A
C1492      C1497   1.402       .  A
C1492      C1666   1.482       .  S
C1493      C1494   1.412       .  A
C1493      H1498   1.081       .  S
C1494      C1495   1.413       .  A
C1494      C1505   1.504       .  S
C1495      C1496   1.399       .  A
C1495      H1499   1.080       .  S
C1496      C1497   1.400       .  A
C1496      C1634   1.481       .  S
C1497      H1500   1.084       .  S
C1501      C1502   1.407       .  A
C1501      C1506   1.410       .  A
C1502      C1503   1.397       .  A
C1503      C1504   1.395       .  A
C1503      C1561   1.481       .  S
C1504      C1505   1.411       .  A
C1504      H1508   1.079       .  S
C1505      C1506   1.416       .  A
C1506      H1509   1.078       .  S
O1510     Mn1536   2.106       .  S
O1510      C3477   1.273   1_455  A
C1511      C1922   1.495       .  S
C1511      O1544   1.275       .  A
C1511      O1541   1.273       .  A
O1512     Mn1519   2.183       .  S
O1512     Mn1530   2.122       .  S
O1512     Mn1534   2.163       .  S
O1512     Mn3476   2.122       .  S
O1513     Mn1547   2.102       .  S
O1513      C1523   1.272       .  A
O1514     Mn1530   2.103       .  S
O1514      C1537   1.276       .  A
O1515     Mn1534   2.106       .  S
O1515      C1542   1.252       .  A
O1516     Mn1536   1.972       .  S
O1516      C1532   1.218       .  S
C1517      C1570   1.495       .  S
C1517      O1520   1.251       .  A
C1517      O1543   1.223       .  S
O1518     Mn1519   2.176       .  S
O1518     Mn1552   2.125       .  S
O1518     Mn1534   2.165       .  S
Mn1519     O1524   2.095       .  S
Mn1519     O3491   2.130       .  S
Mn1519     O2495   2.162   1_565  S
O1521     Mn1528   2.098       .  S
O1521      C1523   1.273       .  A
C1522      C1625   1.503       .  S
C1522      O1548   1.260       .  A
C1522      O1535   1.211       .  S
C1523      C1858   1.478       .  S
O1524      C1549   1.251       .  A
O1525     Mn2489   2.169   1_455  S
O1525     Mn1528   2.118       .  S
O1525     Mn1547   2.114       .  S
O1525     Mn2504   2.171   1_455  S
O1526     Mn1530   1.952       .  S
O1526     Mn1552   1.956       .  S
O1526      C1549   1.218       .  S
C1527      C1689   1.484       .  S
C1527      O1529   1.273       .  A
Mn1528     O1541   2.105       .  S
Mn1528     O3483   1.975   1_455  S
Mn1528     O3475   1.943   1_455  S
O1529     Mn1552   2.096       .  S
Mn1530     O1546   2.095       .  S
Mn1530     O1540   1.969       .  S
O1531     Mn1536   2.111       .  S
O1531      C3473   1.273   1_455  A
C1532      C1721   1.489       .  S
C1532      O1550   1.252       .  A
C1533      C1657   1.489       .  S
C1533      O3471   1.273       .  A
C1533      O1546   1.271       .  A
Mn1534     O3490   2.095       .  S
Mn1534     O2495   2.164   1_565  S
O1535     Mn3468   1.937       .  S
O1535     Mn1538   1.954       .  S
Mn1536     O3452   2.124   1_455  S
Mn1536     O1554   1.949       .  S
C1537      C1602   1.506       .  S
C1537      O3450   1.270       .  A
Mn1538     O1545   2.111       .  S
Mn1538     O1553   2.090       .  S
Mn1538     O1543   1.973       .  S
C1539      C1753   1.492       .  S
C1539      O1555   1.274       .  A
O1540     Mn1552   1.973       .  S
O1540      C1542   1.221       .  S
C1542      C1826   1.501       .  S
O1543     Mn3468   1.970       .  S
O1544     Mn1547   2.114       .  S
C1549      C1890   1.486       .  S
O1550     Mn3474   2.104   1_455  S
O1551     Mn3459   2.120   1_455  S
O1551      C1556   1.257       .  A
Mn1552     O1555   2.103       .  S
O1554      C1556   1.211       .  S
C1556      C1794   1.496       .  S
C1557      C1558   1.399       .  A
C1557      C1562   1.404   1_556  A
C1557      H3507   1.083       .  S
C1558      C1559   1.416       .  A
C1558      C1563   1.484       .  S
C1560      C1561   1.403       .  A
C1560      H1565   1.083       .  S
C1562      C3506   1.520       .  S
C1563      C1568   1.413       .  A
C1563      C1572   1.400       .  A
C1564      F1580   1.383       .  S
C1564      F1582   1.385       .  S
C1566      C3502   1.518       .  S
C1566      F1577   1.380       .  S
C1566      F1578   1.384       .  S
C1566      F1579   1.383   1_556  S
H1567      C3497   1.083       .  S
C1568      C1569   1.403       .  A
C1568      C1573   1.521       .  S
C1569      C1570   1.409       .  A
C1569      H1574   1.080       .  S
C1570      C1571   1.426       .  A
C1571      C1572   1.410       .  A
C1571      C3515   1.518       .  S
C1572      H3516   1.083       .  S
C1573      F1586   1.385       .  S
C1573      F1587   1.382       .  S
C1573      F1588   1.382       .  S
C1575      C3511   1.515   1_455  S
C1575      F1583   1.385       .  S
C1575      F1584   1.381       .  S
C1575      F1585   1.380   1_455  S
H1576      C3512   1.083       .  S
C1589      C1590   1.400       .  A
C1589      C1594   1.409   1_556  A
C1589      H1599   1.083       .  S
C1590      C3531   1.415       .  A
C1590      C1595   1.487       .  S
C1591      C3530   1.418   1_455  A
C1591      C1592   1.405   1_455  A
C1591      C1596   1.521       .  S
C1592      C3533   1.406   1_556  A
C1592      H1597   1.082   1_655  S
C1593      C3532   1.409   1_554  A
C1593      C1594   1.428       .  A
C1595      C1600   1.414       .  A
C1595      C1604   1.395       .  A
C1596      F1612   1.381       .  S
C1596      F1613   1.383       .  S
C1596      F1614   1.385       .  S
C1598      F1610   1.380       .  S
C1598      F1611   1.383       .  S
C1600      C1601   1.408       .  A
C1600      C1605   1.521       .  S
C1601      C1602   1.414       .  A
C1601      H1606   1.082       .  S
C1602      C1603   1.432       .  A
C1603      C1604   1.406       .  A
C1603      C3547   1.520       .  S
C1604      H3548   1.083       .  S
C1605      F1618   1.385       .  S
C1605      F1619   1.380       .  S
C1605      F1620   1.383       .  S
C1607      C3543   1.519       .  S
C1607      F3555   1.383       .  S
C1607      F1616   1.385       .  S
C1607      F1617   1.375       .  S
H1608      C3544   1.083       .  S
F1615      C3547   1.382       .  S
C1621      C1622   1.393       .  A
C1621      C1626   1.403       .  A
C1621      H1631   1.083       .  S
C1622      C3563   1.414       .  A
C1622      C1627   1.488       .  S
C1623      C3562   1.416       .  A
C1623      C1624   1.417       .  A
C1623      C1628   1.517   1_655  S
C1624      C3565   1.411       .  A
C1624      H1629   1.082       .  S
C1625      C3564   1.411       .  A
C1625      C1626   1.435       .  A
C1626      C1630   1.525       .  S
C1627      C1632   1.419       .  A
C1627      C3576   1.407       .  A
C1628      F1644   1.382       .  S
C1628      F3585   1.382   1_455  S
C1628      F1646   1.384       .  S
C1630      F1641   1.385       .  S
C1630      F1642   1.381       .  S
C1630      F1643   1.381       .  S
C1632      C1633   1.403       .  A
C1632      C1637   1.519       .  S
C1633      C1634   1.399       .  A
C1633      H1638   1.083       .  S
C1634      C3575   1.414       .  A
C1635      C3574   1.414   1_455  A
C1635      C1636   1.411       .  A
C1635      C1639   1.517       .  S
C1636      C3567   1.406   1_455  A
C1636      H1640   1.083       .  S
C1637      F1650   1.384       .  S
C1637      F1651   1.382       .  S
C1637      F1652   1.379       .  S
C1639      F1647   1.383       .  S
C1639      F1648   1.383       .  S
C1639      F1649   1.384       .  S
F1645      C3568   1.381       .  S
C1653      C3594   1.402   1_455  A
C1653      C1658   1.412       .  A
C1653      H1663   1.083       .  S
C1654      C3593   1.400       .  A
C1654      C1655   1.417       .  A
C1654      C1659   1.491       .  S
C1655      C1656   1.412       .  A
C1655      C1660   1.518       .  S
C1656      C1657   1.407       .  A
C1656      H1661   1.083       .  S
C1657      C3598   1.422       .  A
C1658      C3597   1.426   1_455  A
C1658      C1662   1.520       .  S
C1659      C3604   1.418       .  A
C1659      C1668   1.406       .  A
C1660      F1676   1.382       .  S
C1660      F1677   1.383       .  S
C1660      F1678   1.384       .  S
C1662      F1673   1.383       .  S
C1662      F1674   1.385       .  S
C1662      F1675   1.383       .  S
C1664      C3599   1.419   1_455  A
C1664      C1665   1.410       .  A
C1664      C1669   1.519       .  S
C1665      C3606   1.406   1_455  A
C1665      H1670   1.083       .  S
C1666      C3605   1.400       .  A
C1666      C1667   1.415       .  A
C1667      C1668   1.411       .  A
C1667      C1671   1.517       .  S
C1668      H1672   1.083       .  S
C1669      F1682   1.384       .  S
C1669      F1683   1.381       .  S
C1669      F1684   1.380       .  S
C1671      F1679   1.382       .  S
C1671      F1680   1.384       .  S
C1671      F1681   1.385       .  S
C1685      C1686   1.399       .  A
C1685      C1690   1.405       .  A
C1685      H1695   1.083   1_565  S
C1686      C1687   1.414       .  A
C1686      C1691   1.481       .  S
C1687      C1688   1.407       .  A
C1688      C1689   1.406       .  A
C1689      C1690   1.424       .  A
C1690      C1694   1.521   1_565  S
C1691      C1700   1.402       .  A
C1692      F1709   1.382       .  S
C1692      F1710   1.383       .  S
C1694      F1705   1.382       .  S
C1694      F1706   1.385       .  S
C1694      F1707   1.383       .  S
C1696      C1697   1.406   1_556  A
C1696      C1701   1.518       .  S
C1697      H1702   1.083       .  S
C1699      C1703   1.516       .  S
C1700      H1704   1.084       .  S
C1701      F1714   1.385   1_556  S
C1701      F1715   1.381       .  S
C1701      F1716   1.382       .  S
C1703      F1711   1.384       .  S
C1703      F1712   1.383       .  S
C1703      F1713   1.382       .  S
C1717      C1718   1.399       .  A
C1717      C1722   1.407       .  A
C1717      H1727   1.083       .  S
C1718      C1723   1.472       .  S
C1719      C1720   1.403       .  A
C1719      C1724   1.520       .  S
C1720      H1725   1.082       .  S
C1721      C1722   1.424       .  A
C1722      C1726   1.515       .  S
C1723      C1732   1.400       .  A
C1724      F1740   1.383       .  S
C1724      F1741   1.380       .  S
C1724      F1742   1.385       .  S
C1726      F1737   1.385       .  S
C1726      F1738   1.383       .  S
C1726      F1739   1.378       .  S
C1729      H1734   1.085       .  S
C1731      C1732   1.399       .  A
C1731      C1735   1.518       .  S
C1732      H1736   1.083       .  S
C1733      F1746   1.383       .  S
C1735      F1743   1.385       .  S
C1735      F1744   1.383   1_556  S
C1735      F1745   1.379       .  S
C1749      C1750   1.402       .  A
C1749      C1754   1.411       .  A
C1749      H1759   1.083   1_565  S
C1750      C1751   1.416       .  A
C1750      C1755   1.490       .  S
C1751      C1752   1.409       .  A
C1752      C1753   1.407       .  A
C1753      C1754   1.419       .  A
C1754      C1758   1.513   1_565  S
C1755      C1760   1.419       .  A
C1755      C1764   1.402       .  A
C1756      F1773   1.383       .  S
C1756      F1774   1.385       .  S
C1758      F1769   1.380       .  S
C1758      F1770   1.383       .  S
C1758      F1771   1.382   1_545  S
C1760      C1761   1.409       .  A
C1761      C1762   1.403       .  A
C1761      H1766   1.083   1_565  S
C1762      C1763   1.417       .  A
C1763      C1764   1.407       .  A
C1763      C1767   1.519       .  S
C1764      H1768   1.083       .  S
C1765      F1778   1.385       .  S
C1765      F1780   1.383       .  S
C1767      F1775   1.381       .  S
C1767      F1776   1.383       .  S
C1767      F1777   1.385       .  S
C1781      C1782   1.404       .  A
C1781      C1786   1.410       .  A
C1781      H1791   1.083       .  S
C1782      C1783   1.416       .  A
C1782      C1787   1.485       .  S
C1783      C1784   1.405       .  A
C1784      C1785   1.402       .  A
C1784      H1789   1.083       .  S
C1785      C1786   1.416       .  A
C1786      C1790   1.517       .  S
C1787      C1792   1.416       .  A
C1787      C1796   1.398       .  A
C1788      F1805   1.381       .  S
C1788      F1806   1.384       .  S
C1790      F1801   1.384       .  S
C1790      F1802   1.382       .  S
C1790      F1803   1.383       .  S
C1792      C1793   1.406       .  A
C1793      C1794   1.406       .  A
C1794      C1795   1.432       .  A
C1795      C1796   1.407       .  A
C1795      C1799   1.525       .  S
C1796      H1800   1.083       .  S
C1797      F1810   1.385       .  S
C1797      F1812   1.382       .  S
C1799      F1807   1.385       .  S
C1799      F1808   1.383       .  S
C1799      F1809   1.381   1_565  S
C1813      C1814   1.403       .  A
C1813      H1823   1.083       .  S
C1814      C1815   1.416       .  A
C1814      C1819   1.489       .  S
C1815      C1816   1.409   1_556  A
C1815      C1820   1.518       .  S
C1816      H1821   1.083       .  S
C1817      C1818   1.417       .  A
C1818      C1822   1.518       .  S
C1819      C1824   1.414       .  A
C1819      C1828   1.400       .  A
C1820      F1836   1.382   1_556  S
C1820      F1837   1.380       .  S
C1820      F1838   1.385   1_556  S
C1822      F1833   1.385       .  S
C1822      F1834   1.383       .  S
C1822      F1835   1.381       .  S
C1824      C1825   1.407       .  A
C1824      C1829   1.521       .  S
C1825      C1826   1.411       .  A
C1825      H1830   1.082       .  S
C1826      C1827   1.426       .  A
C1827      C1828   1.411       .  A
C1827      C1831   1.516       .  S
C1828      H1832   1.083       .  S
C1829      F1842   1.385       .  S
C1829      F1843   1.382       .  S
C1829      F1844   1.382       .  S
C1831      F1839   1.382       .  S
C1831      F1840   1.379       .  S
C1831      F1841   1.385       .  S
C1845      C1846   1.402       .  A
C1845      C1850   1.408   1_556  A
C1845      H1855   1.083       .  S
C1846      C1847   1.417       .  A
C1846      C1851   1.486       .  S
C1847      C1848   1.407       .  A
C1847      C1852   1.520       .  S
C1848      C1849   1.403   1_556  A
C1848      H1853   1.083       .  S
C1849      C1850   1.420       .  A
C1851      C1856   1.417       .  A
C1851      C1860   1.400       .  A
C1852      F1868   1.382       .  S
C1852      F1869   1.382       .  S
C1852      F1870   1.384       .  S
C1854      F1865   1.382       .  S
C1854      F1867   1.383       .  S
C1856      C1857   1.411       .  A
C1856      C1861   1.517       .  S
C1857      C1858   1.403       .  A
C1857      H1862   1.082       .  S
C1858      C1859   1.416       .  A
C1859      C1860   1.405       .  A
C1859      C1863   1.515       .  S
C1860      H1864   1.083       .  S
C1863      F1871   1.382       .  S
C1863      F1872   1.383       .  S
C1863      F1873   1.385       .  S
C1877      C1878   1.400       .  A
C1877      C1882   1.404       .  A
C1877      H1887   1.084       .  S
C1878      C1879   1.414       .  A
C1878      C1883   1.472       .  S
C1879      C1880   1.404       .  A
C1879      C1884   1.522       .  S
C1880      C1881   1.402       .  A
C1880      H1885   1.083       .  S
C1881      C1882   1.415       .  A
C1882      C1886   1.517       .  S
C1883      C1888   1.409       .  A
C1883      C1892   1.400       .  A
C1884      F1900   1.383       .  S
C1884      F1901   1.382       .  S
C1884      F1902   1.384       .  S
C1886      F1897   1.382       .  S
C1886      F1898   1.385       .  S
C1886      F1899   1.383       .  S
C1888      C1889   1.395       .  A
C1888      C1893   1.523       .  S
C1889      C1890   1.410       .  A
C1889      H1894   1.082       .  S
C1890      C1891   1.424       .  A
C1891      C1892   1.409       .  A
C1891      C1895   1.520       .  S
C1892      H1896   1.083       .  S
C1893      F1906   1.385       .  S
C1893      F1907   1.382       .  S
C1893      F1908   1.381       .  S
C1895      F1903   1.384       .  S
C1895      F1904   1.382       .  S
C1895      F1905   1.384       .  S
C1909      C1910   1.403       .  A
C1909      C1914   1.410       .  A
C1909      H1919   1.083       .  S
C1910      C1911   1.417       .  A
C1910      C1915   1.491       .  S
C1911      C1912   1.408       .  A
C1911      C1916   1.520       .  S
C1912      C1913   1.404       .  A
C1912      H1917   1.083       .  S
C1913      C1914   1.421       .  A
C1914      C1918   1.521       .  S
C1915      C1920   1.415       .  A
C1915      C1924   1.403       .  A
C1916      F1932   1.382       .  S
C1916      F1933   1.383       .  S
C1916      F1934   1.384       .  S
C1918      F1929   1.384       .  S
C1918      F1930   1.381       .  S
C1918      F1931   1.383       .  S
C1920      C1921   1.407       .  A
C1920      C1925   1.520       .  S
C1921      C1922   1.406       .  A
C1921      H1926   1.079       .  S
C1922      C1923   1.420       .  A
C1923      C1924   1.412       .  A
C1923      C1927   1.513       .  S
C1924      H1928   1.083       .  S
C1925      F1938   1.384       .  S
C1925      F1939   1.382       .  S
C1925      F1940   1.383       .  S
C1927      F1935   1.379       .  S
C1927      F1936   1.384       .  S
C1927      F1937   1.384       .  S
C1941      C1942   1.400       .  A
C1941      C1946   1.409       .  A
C1941      C2398   1.494       .  S
C1942      C1943   1.396       .  A
C1942      H1947   1.084       .  S
C1943      C1944   1.398       .  A
C1943      C2366   1.475       .  S
C1944      C1945   1.412       .  A
C1944      H1948   1.079       .  S
C1945      C1946   1.422       .  A
C1945      C1954   1.514       .  S
C1946      H1949   1.075       .  S
C1950      C1951   1.399       .  A
C1950      C1955   1.399       .  A
C1950      C2819   1.479       .  S
C1951      C1952   1.400       .  A
C1951      H2441   1.083   1_554  S
C1952      C1953   1.408       .  A
C1952      C2302   1.491       .  S
C1953      C1954   1.421       .  A
C1953      H1957   1.079       .  S
C1954      C1955   1.412       .  A
C1955      H1958   1.078       .  S
H1956      C2436   1.083       .  S
C1959      C1960   1.407       .  A
C1959      C1964   1.405       .  A
C1959      C2247   1.489       .  S
C1960      C1961   1.402       .  A
C1960      H1965   1.084       .  S
C1961      C1962   1.400       .  A
C1961      C2270   1.490       .  S
C1962      C1963   1.417       .  A
C1962      H1966   1.080       .  S
C1963      C1964   1.410       .  A
C1963      C1970   1.505       .  S
C1964      H1967   1.080       .  S
C1968      C1969   1.411       .  A
C1968      C1973   1.403       .  A
C1968      C2668   1.489   1_554  S
C1969      C1970   1.418       .  A
C1969      H1974   1.081       .  S
C1970      C1971   1.407       .  A
C1971      C1972   1.394       .  A
C1971      H1975   1.080       .  S
C1972      C1973   1.399       .  A
C1972      C2215   1.474       .  S
C1973      H2461   1.084   1_554  S
H1976      C2458   1.084       .  S
C1977      C1978   1.404       .  A
C1977      C1982   1.404       .  A
C1977      C2151   1.487       .  S
C1978      C1979   1.412       .  A
C1978      H1983   1.080       .  S
C1979      C1980   1.409       .  A
C1979      C1990   1.502       .  S
C1980      C1981   1.398       .  A
C1980      H1984   1.081       .  S
C1981      C1982   1.402       .  A
C1981      C2119   1.478       .  S
C1982      H1985   1.083       .  S
C1986      C1987   1.404       .  A
C1986      C1991   1.405       .  A
C1986      C2563   1.493       .  S
C1987      C1988   1.397       .  A
C1987      H2477   1.084   1_554  S
C1988      C1989   1.398       .  A
C1988      C2046   1.479       .  S
C1989      C1990   1.412       .  A
C1989      H1993   1.081       .  S
C1990      C1991   1.413       .  A
C1991      H1994   1.078       .  S
H1992      C2472   1.084       .  S
O1995     Mn2021   2.087       .  S
C1996      C2407   1.494       .  S
C1996      O2029   1.275       .  A
C1996      O2026   1.272       .  A
O1997     Mn2004   2.180       .  S
O1997     Mn2015   2.119       .  S
O1997     Mn2019   2.160       .  S
O1998     Mn2032   2.075       .  S
O1998      C2008   1.266       .  A
O1999     Mn2015   2.086       .  S
O1999      C2022   1.273       .  A
O2000     Mn2019   2.110       .  S
O2000      C2027   1.253       .  A
O2001     Mn3002   1.966       .  S
O2001     Mn2021   1.977       .  S
O2001      C2017   1.222       .  S
C2002      C2055   1.498       .  S
C2002      O2005   1.253       .  A
C2002      O2028   1.218       .  S
O2003     Mn2993   2.111       .  S
O2003     Mn2004   2.176       .  S
O2003     Mn2037   2.126       .  S
O2003     Mn2019   2.161       .  S
Mn2004     O3003   2.137       .  S
Mn2004     O2009   2.122       .  S
O2005     Mn2989   2.113   1_545  S
O2006     Mn2013   2.100       .  S
O2006      C2008   1.273       .  A
C2007      C2110   1.497       .  S
C2007      O2033   1.259       .  A
C2007      O2020   1.209       .  S
C2008      C2343   1.469       .  S
O2009      C2034   1.255       .  A
O2010     Mn2013   2.120       .  S
O2010     Mn2032   2.116       .  S
O2011     Mn2015   1.941       .  S
O2011     Mn2037   1.948       .  S
O2011      C2034   1.216       .  S
C2012      C2174   1.478       .  S
C2012      O3008   1.268       .  A
C2012      O2014   1.272       .  A
Mn2013     O2026   2.095       .  S
O2014     Mn2037   2.090       .  S
Mn2015     O2031   2.091       .  S
Mn2015     O2025   1.973       .  S
O2016     Mn2021   2.101       .  S
C2017      C2206   1.491       .  S
C2017      O2035   1.253       .  A
C2018      C2142   1.489       .  S
C2018      O2031   1.271       .  A
Mn2019     O2975   2.111       .  S
O2020     Mn2023   1.963       .  S
Mn2021     O2039   1.938       .  S
C2022      C2087   1.502       .  S
Mn2023     O2030   2.107   1_545  S
Mn2023     O2038   2.117   1_545  S
Mn2023     O2973   2.112   1_545  S
Mn2023     O2028   1.974       .  S
C2024      C2238   1.488       .  S
C2024      O3000   1.274       .  A
C2024      O2040   1.271       .  A
O2025     Mn2037   1.972       .  S
O2025      C2027   1.222       .  S
C2027      C2311   1.504       .  S
O2029     Mn2032   2.119       .  S
O2030      C2994   1.274       .  A
Mn2032     O3009   2.008   1_545  S
Mn2032     O2971   1.986   1_545  S
O2033     Mn2974   2.134   1_545  S
C2034      C2375   1.496       .  S
O2036      C2041   1.257       .  A
Mn2037     O2040   2.089       .  S
O2038      C2982   1.277       .  A
O2039     Mn3002   1.954       .  S
O2039      C2041   1.211       .  S
C2041      C2279   1.503       .  S
C2042      C2043   1.400       .  A
C2042      C2047   1.403   1_655  A
C2043      C2044   1.416       .  A
C2043      C2048   1.482       .  S
C2044      C2530   1.410       .  A
C2044      C2534   1.518       .  S
C2045      C2529   1.409   1_554  A
C2045      C2046   1.402       .  A
C2045      H2050   1.083       .  S
C2046      C2532   1.418   1_554  A
C2047      C2531   1.417   1_455  A
C2048      C2053   1.413       .  A
C2048      C2057   1.399       .  A
C2049      C2529   1.515       .  S
C2049      F2065   1.383   1_556  S
C2049      F2551   1.380       .  S
C2049      F2067   1.384   1_556  S
C2051      F2062   1.380       .  S
C2051      F2063   1.384       .  S
C2051      F2064   1.383       .  S
C2053      C2054   1.406       .  A
C2053      C2058   1.522       .  S
C2054      C2055   1.410       .  A
C2054      H2059   1.082       .  S
C2055      C2056   1.423       .  A
C2056      C2057   1.409       .  A
C2058      F2071   1.384       .  S
C2058      F2072   1.383       .  S
C2058      F2073   1.381       .  S
C2060      F2068   1.385       .  S
C2060      F2069   1.380       .  S
C2060      F2070   1.380       .  S
F2066      C2534   1.381       .  S
C2074      C2075   1.402       .  A
C2074      C2079   1.407       .  A
C2074      H2084   1.083       .  S
C2075      C2080   1.487       .  S
C2076      C2077   1.404       .  A
C2076      C2081   1.522       .  S
C2077      H2082   1.082       .  S
C2078      C2079   1.421       .  A
C2078      C2471   1.487       .  S
C2079      C2568   1.521       .  S
C2080      C2085   1.415       .  A
C2080      C2089   1.398   1_655  A
C2081      F2097   1.382       .  S
C2081      F2098   1.383       .  S
C2081      F2099   1.385       .  S
C2083      C2564   1.522       .  S
C2083      F2579   1.385       .  S
C2083      F2095   1.380       .  S
C2083      F2096   1.384       .  S
C2085      C2086   1.405       .  A
C2085      C2090   1.522       .  S
C2086      C2087   1.414       .  A
C2086      H2091   1.082       .  S
C2087      C2088   1.428   1_655  A
C2088      C2089   1.407       .  A
C2090      F2103   1.385       .  S
C2090      F2104   1.381       .  S
C2090      F2105   1.383       .  S
C2092      F2101   1.384       .  S
C2092      F2102   1.374       .  S
F2094      C2568   1.385       .  S
C2106      C2107   1.393       .  A
C2106      C2111   1.402       .  A
C2106      H2116   1.083       .  S
C2107      C2112   1.484       .  S
C2108      C2109   1.413       .  A
C2108      C2113   1.517       .  S
C2109      H2114   1.082       .  S
C2110      C2111   1.435       .  A
C2111      C2115   1.526       .  S
C2112      C2117   1.419       .  A
C2113      F2129   1.382       .  S
C2113      F2131   1.385       .  S
C2115      F2126   1.385       .  S
C2115      F2127   1.382   1_655  S
C2115      F2128   1.382       .  S
C2117      C2118   1.405       .  A
C2117      C2122   1.520       .  S
C2118      C2119   1.400       .  A
C2118      H2123   1.083       .  S
C2120      C2121   1.411       .  A
C2120      C2124   1.515       .  S
C2121      H2125   1.083       .  S
C2122      F2135   1.384       .  S
C2122      F2136   1.382       .  S
C2122      F2137   1.380       .  S
C2124      F2132   1.383       .  S
C2124      F2133   1.383       .  S
C2124      F2134   1.383       .  S
C2138      C2143   1.407       .  A
C2138      H2148   1.083       .  S
C2139      C2140   1.415       .  A
C2139      C2144   1.488       .  S
C2140      C2141   1.409       .  A
C2140      C2145   1.520       .  S
C2141      C2142   1.407       .  A
C2141      H2146   1.082       .  S
C2143      C2147   1.520       .  S
C2144      C2153   1.404       .  A
C2145      F2161   1.382       .  S
C2145      F2162   1.381       .  S
C2145      F2163   1.383       .  S
C2147      F2158   1.383       .  S
C2147      F2159   1.385       .  S
C2147      F2160   1.383       .  S
C2149      C2150   1.407       .  A
C2149      C2154   1.518       .  S
C2150      H2155   1.083       .  S
C2151      C2152   1.418       .  A
C2152      C2153   1.407       .  A
C2152      C2156   1.518       .  S
C2153      H2157   1.084       .  S
C2154      F2167   1.384       .  S
C2154      F2168   1.381       .  S
C2154      F2169   1.381       .  S
C2156      F2164   1.382       .  S
C2156      F2165   1.383       .  S
C2156      F2166   1.385       .  S
C2170      C2171   1.400       .  A
C2170      C2175   1.403       .  A
C2170      H2180   1.083       .  S
C2171      C2172   1.416       .  A
C2171      C2176   1.475       .  S
C2172      C2173   1.402       .  A
C2172      C3147   1.518       .  S
C2173      C2174   1.403       .  A
C2173      H3148   1.083       .  S
C2174      C2175   1.423       .  A
C2175      C2179   1.523       .  S
C2176      C3151   1.411       .  A
C2176      C2185   1.399       .  A
C2177      C3142   1.519       .  S
C2177      F3648   1.382       .  S
C2177      F2194   1.383       .  S
C2177      F2195   1.382       .  S
H2178      C3143   1.080       .  S
C2179      F2190   1.383       .  S
C2179      F2191   1.385       .  S
C2179      F2192   1.384       .  S
C2181      C3146   1.419       .  A
C2181      C2182   1.407       .  A
C2181      C2186   1.519   1_565  S
C2182      C3153   1.400       .  A
C2182      H2187   1.083   1_565  S
C2183      C3152   1.403       .  A
C2183      C2669   1.420       .  A
C2183      C2453   1.479       .  S
C2184      C2668   1.422       .  A
C2184      C2670   1.409       .  A
C2184      C2188   1.517       .  S
C2185      C2669   1.403       .  A
C2185      H2189   1.085       .  S
C2186      F2199   1.384       .  S
C2186      F2200   1.381       .  S
C2186      F2201   1.383       .  S
C2188      F2196   1.384       .  S
C2188      F2197   1.383       .  S
C2188      F2198   1.380       .  S
F2193      C3632   1.382       .  S
C2202      C2203   1.401       .  A
C2202      C2207   1.410       .  A
C2202      H2212   1.083       .  S
C2203      C3174   1.411       .  A
C2203      C2208   1.480       .  S
C2204      C3173   1.411   1_545  A
C2204      C2205   1.403       .  A
C2204      C2209   1.518       .  S
C2205      C3176   1.408   1_545  A
C2205      H2210   1.082       .  S
C2206      C3175   1.409       .  A
C2206      C2207   1.424       .  A
C2207      C2211   1.517       .  S
C2208      C3183   1.418       .  A
C2208      C2217   1.399       .  A
C2209      F2225   1.382   1_545  S
C2209      F2226   1.382       .  S
C2209      F2227   1.385       .  S
C2211      F2222   1.385       .  S
C2211      F2223   1.383       .  S
C2211      F2224   1.381       .  S
C2213      C3178   1.417   1_545  A
C2213      C2699   1.406       .  A
C2213      C2703   1.517       .  S
C2214      C2698   1.405   1_564  A
C2214      C3185   1.404       .  A
C2214      H2219   1.085   1_565  S
C2215      C3184   1.401   1_554  A
C2215      C2701   1.415       .  A
C2216      C2700   1.417       .  A
C2216      C2217   1.402       .  A
C2216      C2220   1.518       .  S
C2217      H2221   1.083       .  S
C2218      C2698   1.519       .  S
C2218      F2231   1.383       .  S
C2218      F3202   1.383   1_556  S
C2218      F2718   1.382       .  S
C2220      F2228   1.384       .  S
C2220      F2229   1.383       .  S
C2220      F2230   1.380       .  S
F2232      C3188   1.383       .  S
F2233      C2703   1.380       .  S
C2234      C2235   1.400       .  A
C2234      C2239   1.408       .  A
C2234      H2244   1.083       .  S
C2235      C2236   1.415       .  A
C2235      C2240   1.486       .  S
C2236      C2237   1.407       .  A
C2236      C3211   1.519       .  S
C2237      C2238   1.407       .  A
C2237      H3212   1.083       .  S
C2238      C2239   1.417       .  A
C2239      C2243   1.510       .  S
C2240      C2245   1.416       .  A
C2240      C2249   1.401       .  A
C2241      C3206   1.520       .  S
C2241      F3227   1.382       .  S
C2241      F2258   1.383       .  S
C2241      F2259   1.384       .  S
H2242      C3207   1.083       .  S
C2243      F2254   1.380       .  S
C2243      F2255   1.382       .  S
C2243      F2256   1.381       .  S
C2245      C2246   1.406       .  A
C2245      C3220   1.520       .  S
C2246      C2247   1.404       .  A
C2246      H2251   1.083       .  S
C2247      C2248   1.423       .  A
C2248      C2249   1.409       .  A
C2248      C2252   1.521       .  S
C2249      H2253   1.083       .  S
C2250      C3215   1.520   1_545  S
C2250      F2263   1.384       .  S
C2250      F3234   1.382       .  S
C2250      F2265   1.383       .  S
C2252      F2260   1.381       .  S
C2252      F2261   1.383       .  S
C2252      F2262   1.385       .  S
F2257      C3211   1.382       .  S
F2264      C3220   1.382       .  S
C2266      C2267   1.406       .  A
C2266      C2271   1.413       .  A
C2266      H2276   1.082       .  S
C2267      C2268   1.419       .  A
C2267      C2272   1.494       .  S
C2268      C2269   1.410       .  A
C2268      C3243   1.521       .  S
C2269      C2270   1.404       .  A
C2269      H2274   1.083       .  S
C2270      C2271   1.415       .  A
C2271      C2275   1.516       .  S
C2272      C2277   1.415       .  A
C2272      C2281   1.396       .  A
C2273      C3238   1.520   1_545  S
C2273      F3259   1.382       .  S
C2273      F2290   1.382       .  S
C2273      F2291   1.385       .  S
C2275      F2286   1.383       .  S
C2275      F2287   1.382       .  S
C2275      F2288   1.383       .  S
C2277      C2278   1.414       .  A
C2277      C3252   1.517       .  S
C2278      C2279   1.410       .  A
C2278      H3253   1.082       .  S
C2279      C2280   1.434       .  A
C2280      C2281   1.407       .  A
C2280      C2284   1.525       .  S
C2281      H2285   1.083       .  S
C2282      C3247   1.514       .  S
C2282      F2295   1.385       .  S
C2282      F3266   1.382       .  S
C2282      F2297   1.382       .  S
H2283      C3248   1.083       .  S
C2284      F2292   1.385       .  S
C2284      F2293   1.383       .  S
C2284      F2294   1.382       .  S
F2289      C3243   1.382       .  S
F2296      C3252   1.381       .  S
C2298      C2299   1.404       .  A
C2298      C2788   1.411       .  A
C2298      H2308   1.083       .  S
C2299      C2300   1.416       .  A
C2299      C2304   1.494       .  S
C2300      C2301   1.411       .  A
C2300      C2305   1.518       .  S
C2301      C2787   1.406       .  A
C2301      H2306   1.083       .  S
C2302      C2786   1.405       .  A
C2302      C2303   1.419   1_554  A
C2303      C2783   1.410       .  A
C2303      C2307   1.518       .  S
C2304      C2309   1.416       .  A
C2304      C2313   1.401       .  A
C2305      F2321   1.382       .  S
C2305      F2322   1.382       .  S
C2305      F2323   1.384       .  S
C2307      F2318   1.385       .  S
C2307      F2319   1.383   1_556  S
C2307      F2320   1.381       .  S
C2309      C2310   1.409       .  A
C2309      C2314   1.520       .  S
C2310      C2311   1.411       .  A
C2310      H2315   1.083       .  S
C2311      C2312   1.426       .  A
C2312      C2313   1.413       .  A
C2312      C2316   1.516       .  S
C2313      H2317   1.083       .  S
C2314      F2327   1.385       .  S
C2314      F2328   1.382       .  S
C2314      F2329   1.383       .  S
C2316      F2324   1.381       .  S
C2316      F2325   1.381       .  S
C2316      F2326   1.384       .  S
C2330      C2331   1.400       .  A
C2330      C2335   1.405       .  A
C2330      H2340   1.083       .  S
C2331      C2332   1.417       .  A
C2331      C2336   1.479       .  S
C2332      C2333   1.406       .  A
C2332      C2337   1.520       .  S
C2333      C2334   1.402       .  A
C2333      H2338   1.083       .  S
C2334      C2335   1.418       .  A
C2334      C2435   1.480       .  S
C2335      C2824   1.520       .  S
C2336      C2341   1.416       .  A
C2336      C2345   1.399       .  A
C2337      F2353   1.382       .  S
C2337      F2354   1.382       .  S
C2337      F2355   1.384       .  S
C2339      C2820   1.519   1_554  S
C2339      F2350   1.382       .  S
C2339      F2836   1.385       .  S
C2339      F2352   1.383       .  S
C2341      C2342   1.408       .  A
C2341      C2346   1.517       .  S
C2342      C2343   1.403       .  A
C2342      H2347   1.082       .  S
C2343      C2344   1.414       .  A
C2344      C2345   1.400       .  A
C2344      C2348   1.517       .  S
C2345      H2349   1.084       .  S
C2346      F2844   1.385       .  S
C2346      F2845   1.382       .  S
C2346      F2846   1.381       .  S
C2348      F2356   1.382       .  S
C2348      F2357   1.383       .  S
C2348      F2358   1.385       .  S
F2351      C2824   1.385       .  S
F2359      C2831   1.385       .  S
F2360      C2831   1.383   1_554  S
F2361      C2831   1.382   1_554  S
C2362      C2363   1.403       .  A
C2362      C2367   1.407       .  A
C2362      H2372   1.083       .  S
C2363      C2364   1.416       .  A
C2363      C2368   1.480       .  S
C2364      C2365   1.404       .  A
C2364      C2369   1.521       .  S
C2365      C2366   1.400       .  A
C2365      H2370   1.083       .  S
C2366      C2367   1.415       .  A
C2367      C2371   1.518       .  S
C2368      C2373   1.410       .  A
C2368      C2377   1.401       .  A
C2369      F2385   1.382       .  S
C2369      F2386   1.383       .  S
C2369      F2387   1.384       .  S
C2371      F2382   1.383       .  S
C2371      F2383   1.385       .  S
C2371      F2384   1.383       .  S
C2373      C2374   1.400       .  A
C2373      C2378   1.523       .  S
C2374      C2375   1.414       .  A
C2374      H2379   1.082       .  S
C2375      C2376   1.423       .  A
C2376      C2377   1.411       .  A
C2376      C2380   1.518       .  S
C2377      H2381   1.083       .  S
C2378      F2391   1.385       .  S
C2378      F2392   1.382       .  S
C2378      F2393   1.382       .  S
C2380      F2388   1.383       .  S
C2380      F2389   1.381       .  S
C2380      F2390   1.385       .  S
C2394      C2395   1.405       .  A
C2394      C2399   1.414       .  A
C2394      H2404   1.083       .  S
C2395      C2396   1.416       .  A
C2395      C2400   1.492       .  S
C2396      C2397   1.406       .  A
C2396      C2401   1.520       .  S
C2397      C2398   1.405       .  A
C2397      H2402   1.083       .  S
C2398      C2399   1.421       .  A
C2399      C2403   1.520       .  S
C2400      C2405   1.416       .  A
C2400      C2409   1.403       .  A
C2401      F2417   1.382       .  S
C2401      F2418   1.383       .  S
C2401      F2419   1.385       .  S
C2403      F2414   1.383       .  S
C2403      F2415   1.380       .  S
C2403      F2416   1.383       .  S
C2405      C2406   1.407       .  A
C2405      C2410   1.519       .  S
C2406      C2407   1.406       .  A
C2406      H2411   1.081       .  S
C2407      C2408   1.420       .  A
C2408      C2409   1.411       .  A
C2408      C2412   1.512       .  S
C2409      H2413   1.083       .  S
C2410      F2423   1.385       .  S
C2410      F2424   1.382       .  S
C2410      F2425   1.382       .  S
C2412      F2420   1.380       .  S
C2412      F2421   1.385       .  S
C2412      F2422   1.383       .  S
C2426      C2427   1.402       .  A
C2426      C2431   1.409       .  A
C2426      C2883   1.493       .  S
C2427      C2428   1.396       .  A
C2427      H2432   1.084       .  S
C2428      C2429   1.396       .  A
C2428      C2851   1.475       .  S
C2429      C2430   1.411       .  A
C2429      H2433   1.078       .  S
C2430      C2431   1.422       .  A
C2430      C2439   1.514       .  S
C2431      H2434   1.074       .  S
C2435      C2436   1.401       .  A
C2435      C2440   1.399       .  A
C2436      C2437   1.401       .  A
C2437      C2438   1.406       .  A
C2437      C2787   1.493       .  S
C2438      C2439   1.421       .  A
C2438      H2442   1.078       .  S
C2439      C2440   1.411       .  A
C2440      H2443   1.077       .  S
C2444      C2445   1.402       .  A
C2444      C2449   1.404       .  A
C2444      C2732   1.488       .  S
C2445      C2446   1.401       .  A
C2445      H2450   1.084       .  S
C2446      C2447   1.402       .  A
C2446      C2755   1.485       .  S
C2447      C2448   1.415       .  A
C2447      H2451   1.080       .  S
C2448      C2449   1.416       .  A
C2448      C2455   1.508       .  S
C2449      H2452   1.080       .  S
C2453      C2454   1.403       .  A
C2453      C2458   1.399       .  A
C2454      C2455   1.413       .  A
C2454      H2459   1.080       .  S
C2455      C2456   1.414       .  A
C2456      C2457   1.404       .  A
C2456      H2460   1.080       .  S
C2457      C2458   1.398       .  A
C2457      C2700   1.482       .  S
C2462      C2463   1.403       .  A
C2462      C2467   1.405   1_655  A
C2462      C2636   1.485       .  S
C2463      C2464   1.412       .  A
C2463      H2468   1.081       .  S
C2464      C2465   1.411       .  A
C2464      C2475   1.502       .  S
C2465      C2466   1.398   1_655  A
C2465      H2469   1.080   1_655  S
C2466      C2467   1.402       .  A
C2466      C2604   1.480       .  S
C2467      H2470   1.084       .  S
C2471      C2472   1.403       .  A
C2471      C2476   1.404       .  A
C2472      C2473   1.397       .  A
C2473      C2474   1.397       .  A
C2473      C2531   1.479       .  S
C2474      C2475   1.412       .  A
C2474      H2478   1.080       .  S
C2475      C2476   1.412       .  A
C2476      H2479   1.079       .  S
O2480     Mn2506   2.105       .  S
C2481      C2892   1.491       .  S
C2481      O2514   1.275       .  A
C2481      O2511   1.272       .  A
O2482     Mn2489   2.191       .  S
O2482     Mn2500   2.118       .  S
O2482     Mn2504   2.163       .  S
O2483     Mn2517   2.093       .  S
O2483      C2493   1.270       .  A
O2484     Mn2500   2.100       .  S
O2484      C2507   1.275       .  A
O2485     Mn2504   2.118       .  S
O2485      C2512   1.254       .  A
O2486     Mn3487   1.972       .  S
O2486     Mn2506   1.974       .  S
O2486      C2502   1.220       .  S
C2487      C2540   1.497       .  S
C2487      O2490   1.252       .  A
C2487      O2513   1.221       .  S
O2488     Mn3478   2.113       .  S
O2488     Mn2489   2.178       .  S
O2488     Mn2522   2.126       .  S
O2488     Mn2504   2.169       .  S
Mn2489     O3488   2.155       .  S
Mn2489     O2494   2.107       .  S
O2490     Mn3474   2.103   1_545  S
O2491     Mn2498   2.098       .  S
O2491      C2493   1.273       .  A
C2492      C2595   1.501       .  S
C2492      O2518   1.259       .  A
C2492      O2505   1.210       .  S
C2493      C2828   1.474       .  S
O2494      C2519   1.254       .  A
O2495     Mn2498   2.120       .  S
O2495     Mn2517   2.119       .  S
O2496     Mn2500   1.954       .  S
O2496     Mn2522   1.956       .  S
O2496      C2519   1.219       .  S
C2497      C2659   1.496       .  S
C2497      O3493   1.272       .  A
C2497      O2499   1.274       .  A
Mn2498     O2511   2.093       .  S
O2499     Mn2522   2.102       .  S
Mn2500     O2516   2.092       .  S
Mn2500     O2510   1.965       .  S
O2501     Mn2506   2.097       .  S
C2502      C2691   1.501       .  S
C2502      O2520   1.254       .  A
C2503      C2627   1.494       .  S
C2503      O2516   1.271       .  A
Mn2504     O3460   2.100       .  S
O2505     Mn2508   1.957       .  S
Mn2506     O2524   1.951       .  S
C2507      C2572   1.508       .  S
Mn2508     O2515   2.118   1_545  S
Mn2508     O2523   2.103   1_545  S
Mn2508     O3458   2.112   1_545  S
Mn2508     O2513   1.976       .  S
C2509      C2723   1.490       .  S
C2509      O3485   1.276       .  A
C2509      O2525   1.271       .  A
O2510     Mn2522   1.965       .  S
O2510      C2512   1.219       .  S
C2512      C2796   1.501       .  S
O2514     Mn2517   2.116       .  S
O2515      C3479   1.274       .  A
Mn2517     O3456   1.972   1_545  S
Mn2517     O3494   1.960   1_545  S
O2518     Mn3459   2.142   1_545  S
C2519      C2860   1.491       .  S
O2521      C2526   1.259       .  A
Mn2522     O2525   2.091       .  S
O2523      C3467   1.273       .  A
O2524     Mn3487   1.968       .  S
O2524      C2526   1.213       .  S
C2526      C2764   1.511       .  S
C2527      C2528   1.400       .  A
C2527      C2532   1.403       .  A
C2528      C2529   1.415       .  A
C2528      C2533   1.482       .  S
C2530      C2531   1.403       .  A
C2530      H2535   1.083       .  S
C2533      C2538   1.414       .  A
C2533      C2542   1.399       .  A
C2534      F2550   1.383       .  S
C2534      F2552   1.384       .  S
C2536      F2547   1.382       .  S
C2536      F2548   1.385       .  S
C2536      F2549   1.382   1_556  S
C2538      C2539   1.406       .  A
C2538      C2543   1.522       .  S
C2539      C2540   1.410       .  A
C2539      H2544   1.082       .  S
C2540      C2541   1.424       .  A
C2541      C2542   1.408       .  A
C2543      F2556   1.384       .  S
C2543      F2557   1.382       .  S
C2543      F2558   1.381       .  S
C2545      F2553   1.385       .  S
C2545      F2554   1.380       .  S
C2545      F2555   1.379       .  S
C2559      C2560   1.401       .  A
C2559      C2564   1.407   1_556  A
C2559      H2569   1.083       .  S
C2560      C2565   1.489       .  S
C2561      C2562   1.405       .  A
C2561      C2566   1.520       .  S
C2562      H2567   1.083       .  S
C2563      C2564   1.424       .  A
C2565      C2570   1.414       .  A
C2565      C2574   1.397   1_655  A
C2566      F2582   1.382       .  S
C2566      F2583   1.383       .  S
C2566      F2584   1.385       .  S
C2568      F2580   1.380       .  S
C2568      F2581   1.383       .  S
C2570      C2571   1.408       .  A
C2570      C2575   1.522       .  S
C2571      C2572   1.414       .  A
C2571      H2576   1.082       .  S
C2572      C2573   1.431   1_655  A
C2573      C2574   1.409       .  A
C2575      F2588   1.385       .  S
C2575      F2589   1.380       .  S
C2575      F2590   1.383       .  S
C2577      F2586   1.383       .  S
C2577      F2587   1.376       .  S
C2591      C2592   1.393       .  A
C2591      C2596   1.402       .  A
C2591      H2601   1.083       .  S
C2592      C2597   1.489       .  S
C2593      C2594   1.413       .  A
C2593      C2598   1.517       .  S
C2594      H2599   1.082       .  S
C2595      C2596   1.435       .  A
C2596      C2600   1.526       .  S
C2597      C2602   1.419       .  A
C2598      F2614   1.383       .  S
C2598      F2616   1.384       .  S
C2600      F2611   1.385       .  S
C2600      F2612   1.382       .  S
C2600      F2613   1.380       .  S
C2602      C2603   1.404       .  A
C2602      C2607   1.520       .  S
C2603      C2604   1.400   1_655  A
C2603      H2608   1.084       .  S
C2605      C2606   1.411       .  A
C2605      C2609   1.516       .  S
C2606      H2610   1.083       .  S
C2607      F2620   1.385       .  S
C2607      F2621   1.382       .  S
C2607      F2622   1.382       .  S
C2609      F2617   1.382       .  S
C2609      F2618   1.383       .  S
C2609      F2619   1.385       .  S
C2623      C2628   1.406       .  A
C2623      H2633   1.083       .  S
C2624      C2625   1.416       .  A
C2624      C2629   1.489       .  S
C2625      C2626   1.409       .  A
C2625      C2630   1.520       .  S
C2626      C2627   1.408       .  A
C2626      H2631   1.082       .  S
C2628      C2632   1.521       .  S
C2629      C2638   1.402       .  A
C2630      F2646   1.381       .  S
C2630      F2647   1.382       .  S
C2630      F2648   1.384       .  S
C2632      F2643   1.382       .  S
C2632      F2644   1.385       .  S
C2632      F2645   1.383       .  S
C2634      C2635   1.407       .  A
C2634      C2639   1.516       .  S
C2635      H2640   1.084       .  S
C2636      C2637   1.419       .  A
C2637      C2638   1.406       .  A
C2637      C2641   1.519       .  S
C2638      H2642   1.085       .  S
C2639      F2652   1.384       .  S
C2639      F2653   1.382       .  S
C2639      F2654   1.381       .  S
C2641      F2649   1.383       .  S
C2641      F2650   1.381       .  S
C2641      F2651   1.384       .  S
C2655      C2656   1.401       .  A
C2655      C2660   1.410       .  A
C2655      H2665   1.083       .  S
C2656      C2657   1.417       .  A
C2656      C2661   1.494       .  S
C2657      C2658   1.411       .  A
C2657      C3632   1.519       .  S
C2658      C2659   1.408       .  A
C2658      H3633   1.082       .  S
C2659      C2660   1.426       .  A
C2660      C2664   1.522       .  S
C2661      C3636   1.416       .  A
C2661      C2670   1.403       .  A
C2662      C3627   1.519       .  S
C2662      F3163   1.382       .  S
C2662      F2679   1.383       .  S
C2662      F2680   1.380       .  S
H2663      C3628   1.081       .  S
C2664      F2675   1.383       .  S
C2664      F2676   1.385       .  S
C2664      F2677   1.384       .  S
C2666      C3631   1.416       .  A
C2666      C2667   1.409   1_556  A
C2666      C2671   1.515   1_565  S
C2667      C3638   1.404   1_554  A
C2667      H2672   1.083       .  S
C2668      C3637   1.403   1_556  A
C2669      C2673   1.515       .  S
C2670      H2674   1.085       .  S
C2671      F2684   1.384   1_556  S
C2671      F2685   1.382       .  S
C2671      F2686   1.382       .  S
C2673      F2681   1.384       .  S
C2673      F2682   1.383       .  S
C2673      F2683   1.380       .  S
F2678      C3147   1.382       .  S
C2687      C2688   1.400       .  A
C2687      C2692   1.411       .  A
C2687      H2697   1.083       .  S
C2688      C3659   1.410       .  A
C2688      C2693   1.479       .  S
C2689      C3658   1.411       .  A
C2689      C2690   1.402       .  A
C2689      C2694   1.519   1_565  S
C2690      C3661   1.408       .  A
C2690      H2695   1.083   1_565  S
C2691      C3660   1.411       .  A
C2691      C2692   1.427       .  A
C2692      C2696   1.515       .  S
C2693      C3668   1.418       .  A
C2693      C2702   1.401       .  A
C2694      F2710   1.383   1_545  S
C2694      F2711   1.382       .  S
C2694      F2712   1.384       .  S
C2696      F2707   1.385       .  S
C2696      F2708   1.379       .  S
C2696      F2709   1.376       .  S
C2698      C3663   1.416   1_545  A
C2699      C3670   1.405   1_545  A
C2699      H2704   1.085       .  S
C2700      C3669   1.404       .  A
C2701      C2702   1.402   1_554  A
C2701      C2705   1.520       .  S
C2702      H2706   1.081       .  S
C2703      F2716   1.383       .  S
C2703      F3687   1.383       .  S
C2705      F2713   1.385       .  S
C2705      F2714   1.382       .  S
C2705      F2715   1.382       .  S
F2717      C3673   1.384       .  S
C2719      C2720   1.402       .  A
C2719      C2724   1.409       .  A
C2719      H2729   1.083       .  S
C2720      C2721   1.416       .  A
C2720      C2725   1.490       .  S
C2721      C2722   1.408       .  A
C2721      C3696   1.520       .  S
C2722      C2723   1.406       .  A
C2722      H3697   1.083       .  S
C2723      C2724   1.418       .  A
C2724      C2728   1.510       .  S
C2725      C2730   1.418       .  A
C2725      C2734   1.402       .  A
C2726      C3691   1.519       .  S
C2726      F3712   1.382       .  S
C2726      F2743   1.382       .  S
C2726      F2744   1.385       .  S
H2727      C3692   1.083       .  S
C2728      F2739   1.379       .  S
C2728      F2740   1.384       .  S
C2728      F2741   1.383       .  S
C2730      C2731   1.408       .  A
C2730      C3705   1.520       .  S
C2731      C2732   1.403       .  A
C2731      H2736   1.083       .  S
C2732      C2733   1.420       .  A
C2733      C2734   1.410       .  A
C2733      C2737   1.519       .  S
C2734      H2738   1.083       .  S
C2735      C3700   1.519   1_545  S
C2735      F2748   1.384       .  S
C2735      F3719   1.382       .  S
C2735      F2750   1.382       .  S
C2737      F2745   1.381       .  S
C2737      F2746   1.383       .  S
C2737      F2747   1.385       .  S
F2742      C3696   1.382       .  S
F2749      C3705   1.382       .  S
C2751      C2752   1.408       .  A
C2751      C2756   1.414       .  A
C2751      H2761   1.083       .  S
C2752      C2753   1.421       .  A
C2752      C2757   1.498       .  S
C2753      C2754   1.408       .  A
C2753      C3728   1.519       .  S
C2754      C2755   1.400       .  A
C2754      H2759   1.083       .  S
C2755      C2756   1.413       .  A
C2756      C2760   1.517       .  S
C2757      C2762   1.417       .  A
C2757      C2766   1.395       .  A
C2758      C3723   1.520   1_545  S
C2758      F3744   1.382       .  S
C2758      F2775   1.381       .  S
C2758      F2776   1.385       .  S
C2760      F2771   1.380       .  S
C2760      F2772   1.383       .  S
C2760      F2773   1.383       .  S
C2762      C2763   1.418       .  A
C2762      C3737   1.517       .  S
C2763      C2764   1.412       .  A
C2763      H3738   1.082       .  S
C2764      C2765   1.435       .  A
C2765      C2766   1.408       .  A
C2765      C2769   1.522       .  S
C2766      H2770   1.083       .  S
C2767      C3732   1.518       .  S
C2767      F2780   1.382       .  S
C2767      F3751   1.382       .  S
C2767      F2782   1.385       .  S
H2768      C3733   1.082       .  S
C2769      F2777   1.385       .  S
C2769      F2778   1.382       .  S
C2769      F2779   1.383       .  S
F2774      C3728   1.382       .  S
F2781      C3737   1.381       .  S
C2783      C2784   1.403       .  A
C2783      H2793   1.083       .  S
C2784      C2785   1.416       .  A
C2784      C2789   1.492       .  S
C2785      C2786   1.410   1_556  A
C2785      C2790   1.517       .  S
C2786      H2791   1.083       .  S
C2787      C2788   1.418       .  A
C2788      C2792   1.519       .  S
C2789      C2794   1.414       .  A
C2789      C2798   1.403       .  A
C2790      F2806   1.382   1_556  S
C2790      F2807   1.380       .  S
C2790      F2808   1.385   1_556  S
C2792      F2803   1.385       .  S
C2792      F2804   1.384       .  S
C2792      F2805   1.381       .  S
C2794      C2795   1.406       .  A
C2794      C2799   1.521       .  S
C2795      C2796   1.411       .  A
C2795      H2800   1.082       .  S
C2796      C2797   1.424       .  A
C2797      C2798   1.414       .  A
C2797      C2801   1.516       .  S
C2798      H2802   1.083       .  S
C2799      F2812   1.385       .  S
C2799      F2813   1.382       .  S
C2799      F2814   1.382       .  S
C2801      F2809   1.383       .  S
C2801      F2810   1.382       .  S
C2801      F2811   1.385       .  S
C2815      C2816   1.400       .  A
C2815      C2820   1.406       .  A
C2815      H2825   1.083       .  S
C2816      C2817   1.417       .  A
C2816      C2821   1.480       .  S
C2817      C2818   1.407       .  A
C2817      C2822   1.520       .  S
C2818      C2819   1.401   1_556  A
C2818      H2823   1.083       .  S
C2819      C2820   1.418   1_554  A
C2821      C2826   1.416       .  A
C2821      C2830   1.399       .  A
C2822      F2838   1.382       .  S
C2822      F2839   1.381       .  S
C2822      F2840   1.384       .  S
C2824      F2835   1.381       .  S
C2824      F2837   1.383       .  S
C2826      C2827   1.410       .  A
C2826      C2831   1.518       .  S
C2827      C2828   1.402       .  A
C2827      H2832   1.081       .  S
C2828      C2829   1.414       .  A
C2829      C2830   1.401       .  A
C2829      C2833   1.514       .  S
C2830      H2834   1.083       .  S
C2833      F2841   1.382       .  S
C2833      F2842   1.383       .  S
C2833      F2843   1.384       .  S
C2847      C2848   1.402       .  A
C2847      C2852   1.404       .  A
C2847      H2857   1.083       .  S
C2848      C2849   1.415       .  A
C2848      C2853   1.478       .  S
C2849      C2850   1.405       .  A
C2849      C2854   1.520       .  S
C2850      C2851   1.403       .  A
C2850      H2855   1.083       .  S
C2851      C2852   1.414       .  A
C2852      C2856   1.518       .  S
C2853      C2858   1.411       .  A
C2853      C2862   1.402       .  A
C2854      F2870   1.382       .  S
C2854      F2871   1.382       .  S
C2854      F2872   1.384       .  S
C2856      F2867   1.382       .  S
C2856      F2868   1.385       .  S
C2856      F2869   1.383       .  S
C2858      C2859   1.399       .  A
C2858      C2863   1.523       .  S
C2859      C2860   1.411       .  A
C2859      H2864   1.082       .  S
C2860      C2861   1.423       .  A
C2861      C2862   1.411       .  A
C2861      C2865   1.520       .  S
C2862      H2866   1.083       .  S
C2863      F2876   1.384       .  S
C2863      F2877   1.382       .  S
C2863      F2878   1.382       .  S
C2865      F2873   1.383       .  S
C2865      F2874   1.382       .  S
C2865      F2875   1.385       .  S
C2879      C2880   1.402       .  A
C2879      C2884   1.409       .  A
C2879      H2889   1.084       .  S
C2880      C2881   1.416       .  A
C2880      C2885   1.487       .  S
C2881      C2882   1.407       .  A
C2881      C2886   1.521       .  S
C2882      C2883   1.407       .  A
C2882      H2887   1.083       .  S
C2883      C2884   1.422       .  A
C2884      C2888   1.519       .  S
C2885      C2890   1.415       .  A
C2885      C2894   1.401       .  A
C2886      F2902   1.382       .  S
C2886      F2903   1.382       .  S
C2886      F2904   1.385       .  S
C2888      F2899   1.385       .  S
C2888      F2900   1.382       .  S
C2888      F2901   1.383       .  S
C2890      C2891   1.405       .  A
C2890      C2895   1.520       .  S
C2891      C2892   1.405       .  A
C2891      H2896   1.079       .  S
C2892      C2893   1.419       .  A
C2893      C2894   1.408       .  A
C2893      C2897   1.511       .  S
C2894      H2898   1.084       .  S
C2895      F2908   1.385       .  S
C2895      F2909   1.381       .  S
C2895      F2910   1.382       .  S
C2897      F2905   1.380       .  S
C2897      F2906   1.385       .  S
C2897      F2907   1.381       .  S
C2911      C2912   1.398       .  A
C2911      C2916   1.410       .  A
C2911      C3368   1.488       .  S
C2912      C2913   1.394       .  A
C2912      H2917   1.084       .  S
C2913      C2914   1.396       .  A
C2913      C3336   1.475       .  S
C2914      C2915   1.413       .  A
C2914      H2918   1.086       .  S
C2915      C2916   1.424       .  A
C2915      C2924   1.520       .  S
C2916      H2919   1.075       .  S
C2920      C2921   1.397       .  A
C2920      C2925   1.404       .  A
C2920      C3789   1.481       .  S
C2921      C2922   1.396       .  A
C2921      H3411   1.084   1_554  S
C2922      C2923   1.401       .  A
C2922      C3272   1.486       .  S
C2923      C2924   1.421       .  A
C2923      H2927   1.085       .  S
C2924      C2925   1.417       .  A
C2925      H2928   1.076       .  S
H2926      C3406   1.083       .  S
C2929      C2930   1.404       .  A
C2929      C2934   1.404       .  A
C2929      C3217   1.486       .  S
C2930      C2931   1.401       .  A
C2930      H2935   1.084       .  S
C2931      C2932   1.400       .  A
C2931      C3240   1.485       .  S
C2932      C2933   1.417       .  A
C2932      H2936   1.078       .  S
C2933      C2934   1.412       .  A
C2933      C2940   1.511       .  S
C2934      H2937   1.079       .  S
C2938      C2939   1.410       .  A
C2938      C2943   1.403       .  A
C2938      C3638   1.490   1_554  S
C2939      C2940   1.419       .  A
C2939      H2944   1.080       .  S
C2940      C2941   1.410       .  A
C2941      C2942   1.397       .  A
C2941      H2945   1.079       .  S
C2942      C2943   1.400       .  A
C2942      C3185   1.481       .  S
C2943      H3431   1.084   1_554  S
H2946      C3428   1.083       .  S
C2947      C2948   1.402       .  A
C2947      C2952   1.400       .  A
C2947      C3121   1.481       .  S
C2948      C2949   1.412       .  A
C2948      H2953   1.081       .  S
C2949      C2950   1.413       .  A
C2949      C2960   1.503       .  S
C2950      C2951   1.401       .  A
C2950      H2954   1.079       .  S
C2951      C2952   1.399       .  A
C2951      C3089   1.480   1_655  S
C2952      H2955   1.083       .  S
C2956      C2957   1.406       .  A
C2956      C2961   1.405       .  A
C2956      C3533   1.495       .  S
C2957      C2958   1.399       .  A
C2957      H3447   1.084   1_554  S
C2958      C2959   1.398       .  A
C2958      C3016   1.480       .  S
C2959      C2960   1.412       .  A
C2959      H2963   1.079       .  S
C2960      C2961   1.414       .  A
C2961      H2964   1.077       .  S
H2962      C3442   1.084       .  S
O2965     Mn2991   2.093       .  S
C2966      C3377   1.489       .  S
C2966      O2999   1.274       .  A
C2966      O2996   1.273       .  A
O2967     Mn2974   2.179       .  S
O2967     Mn2985   2.117       .  S
O2967     Mn2989   2.166       .  S
O2968     Mn3002   2.087       .  S
O2968      C2978   1.269       .  A
O2969     Mn2985   2.085       .  S
O2969      C2992   1.273       .  A
O2970     Mn2989   2.103       .  S
O2970      C2997   1.253       .  A
O2971     Mn2991   1.994       .  S
O2971      C2987   1.222       .  S
C2972      C3025   1.495       .  S
C2972      O2975   1.251       .  A
C2972      O2998   1.217       .  S
O2973     Mn2974   2.177       .  S
O2973     Mn3007   2.128       .  S
O2973     Mn2989   2.164       .  S
Mn2974     O2979   2.113       .  S
O2976     Mn2983   2.106       .  S
O2976      C2978   1.275       .  A
C2977      C3080   1.498       .  S
C2977      O3003   1.260       .  A
C2977      O2990   1.210       .  S
C2978      C3313   1.475       .  S
O2979      C3004   1.253       .  A
O2980     Mn2983   2.115       .  S
O2980     Mn3002   2.116       .  S
O2981     Mn2985   1.948       .  S
O2981     Mn3007   1.950       .  S
O2981      C3004   1.218       .  S
C2982      C3144   1.490       .  S
C2982      O2984   1.271       .  A
Mn2983     O2996   2.103       .  S
O2984     Mn3007   2.092       .  S
Mn2985     O3001   2.094       .  S
Mn2985     O2995   1.969       .  S
O2986     Mn2991   2.100       .  S
C2987      C3176   1.493       .  S
C2987      O3005   1.252       .  A
C2988      C3112   1.494       .  S
C2988      O3001   1.272       .  A
O2990     Mn2993   1.951       .  S
Mn2991     O3009   2.005       .  S
C2992      C3057   1.499       .  S
Mn2993     O3000   2.108       .  S
Mn2993     O3008   2.077       .  S
Mn2993     O2998   1.966       .  S
C2994      C3208   1.485       .  S
C2994      O3010   1.271       .  A
O2995     Mn3007   1.964       .  S
O2995      C2997   1.221       .  S
C2997      C3281   1.498       .  S
O2999     Mn3002   2.108       .  S
C3004      C3345   1.491       .  S
O3006      C3011   1.259       .  A
Mn3007     O3010   2.090       .  S
O3009      C3011   1.229       .  A
C3011      C3249   1.493       .  S
C3012      C3013   1.399   1_455  A
C3012      C3017   1.403       .  A
C3013      C3014   1.413       .  A
C3013      C3018   1.479       .  S
C3014      C3500   1.407       .  A
C3014      C3504   1.515       .  S
C3015      C3499   1.410   1_554  A
C3015      C3016   1.403       .  A
C3015      H3020   1.083       .  S
C3016      C3502   1.418   1_654  A
C3017      C3501   1.418   1_455  A
C3018      C3023   1.412       .  A
C3018      C3027   1.398       .  A
C3019      C3499   1.515       .  S
C3019      F3035   1.383   1_556  S
C3019      F3521   1.381       .  S
C3019      F3037   1.383   1_556  S
C3021      F3032   1.381       .  S
C3021      F3033   1.385       .  S
C3021      F3034   1.384       .  S
C3023      C3024   1.403       .  A
C3023      C3028   1.522       .  S
C3024      C3025   1.410       .  A
C3024      H3029   1.082       .  S
C3025      C3026   1.424       .  A
C3026      C3027   1.408       .  A
C3028      F3041   1.384       .  S
C3028      F3042   1.382       .  S
C3028      F3043   1.381       .  S
C3030      F3038   1.385       .  S
C3030      F3039   1.380       .  S
C3030      F3040   1.380       .  S
F3036      C3504   1.380       .  S
C3044      C3045   1.399       .  A
C3044      C3049   1.403       .  A
C3044      H3054   1.083       .  S
C3045      C3050   1.480       .  S
C3046      C3047   1.405       .  A
C3046      C3051   1.521       .  S
C3047      H3052   1.082       .  S
C3048      C3049   1.421       .  A
C3048      C3441   1.487       .  S
C3049      C3538   1.521       .  S
C3050      C3055   1.413       .  A
C3050      C3059   1.396   1_655  A
C3051      F3067   1.381       .  S
C3051      F3068   1.383       .  S
C3051      F3069   1.385       .  S
C3053      C3534   1.521       .  S
C3053      F3549   1.385       .  S
C3053      F3065   1.382       .  S
C3053      F3066   1.383       .  S
C3055      C3056   1.403       .  A
C3055      C3060   1.522       .  S
C3056      C3057   1.413       .  A
C3056      H3061   1.082       .  S
C3057      C3058   1.429   1_655  A
C3058      C3059   1.405       .  A
C3060      F3073   1.385       .  S
C3060      F3074   1.380       .  S
C3060      F3075   1.383       .  S
C3062      F3071   1.384       .  S
C3062      F3072   1.374       .  S
F3064      C3538   1.385       .  S
C3076      C3077   1.394       .  A
C3076      C3081   1.404       .  A
C3076      H3086   1.083       .  S
C3077      C3082   1.485       .  S
C3078      C3079   1.411       .  A
C3078      C3083   1.516       .  S
C3079      H3084   1.082       .  S
C3080      C3081   1.435       .  A
C3081      C3085   1.527       .  S
C3082      C3087   1.417       .  A
C3083      F3099   1.383       .  S
C3083      F3101   1.384       .  S
C3085      F3096   1.385       .  S
C3085      F3097   1.382   1_655  S
C3085      F3098   1.381       .  S
C3087      C3088   1.403       .  A
C3087      C3092   1.519       .  S
C3088      C3089   1.401   1_655  A
C3088      H3093   1.083       .  S
C3090      C3091   1.409       .  A
C3090      C3094   1.516       .  S
C3091      H3095   1.083       .  S
C3092      F3105   1.384       .  S
C3092      F3106   1.382       .  S
C3092      F3107   1.378       .  S
C3094      F3102   1.383       .  S
C3094      F3103   1.383       .  S
C3094      F3104   1.384       .  S
C3108      C3113   1.406       .  A
C3108      H3118   1.083       .  S
C3109      C3110   1.416       .  A
C3109      C3114   1.490       .  S
C3110      C3111   1.408       .  A
C3110      C3115   1.520       .  S
C3111      C3112   1.408       .  A
C3111      H3116   1.081       .  S
C3113      C3117   1.521       .  S
C3114      C3123   1.404       .  A
C3115      F3131   1.381       .  S
C3115      F3132   1.383       .  S
C3115      F3133   1.384       .  S
C3117      F3128   1.382       .  S
C3117      F3129   1.385       .  S
C3117      F3130   1.384       .  S
C3119      C3120   1.408       .  A
C3119      C3124   1.519       .  S
C3120      H3125   1.083       .  S
C3121      C3122   1.415       .  A
C3122      C3123   1.406       .  A
C3122      C3126   1.518       .  S
C3123      H3127   1.083       .  S
C3124      F3137   1.384       .  S
C3124      F3138   1.382       .  S
C3124      F3139   1.382       .  S
C3126      F3134   1.381       .  S
C3126      F3135   1.384       .  S
C3126      F3136   1.385       .  S
C3140      C3141   1.402       .  A
C3140      C3145   1.408       .  A
C3140      H3150   1.083       .  S
C3141      C3142   1.417       .  A
C3141      C3146   1.494       .  S
C3142      C3143   1.412       .  A
C3143      C3144   1.407       .  A
C3144      C3145   1.420       .  A
C3145      C3149   1.519   1_565  S
C3146      C3155   1.406       .  A
C3147      F3164   1.381       .  S
C3147      F3165   1.383       .  S
C3149      F3160   1.383       .  S
C3149      F3161   1.384       .  S
C3149      F3162   1.382   1_545  S
C3151      C3152   1.403       .  A
C3151      C3156   1.514       .  S
C3152      H3157   1.084       .  S
C3153      C3639   1.416       .  A
C3153      C3423   1.485       .  S
C3154      C3638   1.421       .  A
C3154      C3640   1.408       .  A
C3154      C3158   1.516       .  S
C3155      C3639   1.412       .  A
C3155      H3159   1.083       .  S
C3156      F3169   1.384       .  S
C3156      F3170   1.381       .  S
C3156      F3171   1.383       .  S
C3158      F3166   1.385       .  S
C3158      F3167   1.383       .  S
C3158      F3168   1.382       .  S
C3172      C3173   1.402       .  A
C3172      C3177   1.411       .  A
C3172      H3182   1.083       .  S
C3173      C3178   1.484       .  S
C3174      C3175   1.401       .  A
C3174      C3179   1.519       .  S
C3175      H3180   1.082       .  S
C3176      C3177   1.424       .  A
C3177      C3181   1.517       .  S
C3178      C3187   1.403       .  A
C3179      F3195   1.383       .  S
C3179      F3196   1.381       .  S
C3179      F3197   1.385       .  S
C3181      F3192   1.385       .  S
C3181      F3193   1.383       .  S
C3181      F3194   1.381       .  S
C3183      C3669   1.406       .  A
C3183      C3673   1.516       .  S
C3184      C3668   1.405       .  A
C3184      H3189   1.085       .  S
C3185      C3671   1.416   1_554  A
C3186      C3670   1.418       .  A
C3186      C3187   1.406       .  A
C3186      C3190   1.519       .  S
C3187      H3191   1.082       .  S
C3188      C3668   1.518       .  S
C3188      F3201   1.383       .  S
C3188      F3688   1.382       .  S
C3190      F3198   1.385       .  S
C3190      F3199   1.384       .  S
C3190      F3200   1.380       .  S
F3203      C3673   1.381       .  S
C3204      C3205   1.401       .  A
C3204      C3209   1.408       .  A
C3204      H3214   1.083       .  S
C3205      C3206   1.416       .  A
C3205      C3210   1.485       .  S
C3206      C3207   1.406       .  A
C3207      C3208   1.405       .  A
C3208      C3209   1.417       .  A
C3209      C3213   1.509   1_565  S
C3210      C3215   1.416       .  A
C3210      C3219   1.400       .  A
C3211      F3228   1.383       .  S
C3211      F3229   1.384       .  S
C3213      F3224   1.379       .  S
C3213      F3225   1.383       .  S
C3213      F3226   1.383   1_545  S
C3215      C3216   1.408       .  A
C3216      C3217   1.404       .  A
C3216      H3221   1.083   1_565  S
C3217      C3218   1.421       .  A
C3218      C3219   1.407       .  A
C3218      C3222   1.521       .  S
C3219      H3223   1.083       .  S
C3220      F3233   1.384       .  S
C3220      F3235   1.382       .  S
C3222      F3230   1.381       .  S
C3222      F3231   1.383       .  S
C3222      F3232   1.385       .  S
C3236      C3237   1.403       .  A
C3236      C3241   1.409       .  A
C3236      H3246   1.083       .  S
C3237      C3238   1.419       .  A
C3237      C3242   1.488       .  S
C3238      C3239   1.409       .  A
C3239      C3240   1.403       .  A
C3239      H3244   1.083   1_565  S
C3240      C3241   1.415       .  A
C3241      C3245   1.515       .  S
C3242      C3247   1.415       .  A
C3242      C3251   1.394       .  A
C3243      F3260   1.382       .  S
C3243      F3261   1.384       .  S
C3245      F3256   1.383       .  S
C3245      F3257   1.382       .  S
C3245      F3258   1.383       .  S
C3247      C3248   1.410       .  A
C3248      C3249   1.404       .  A
C3249      C3250   1.439       .  A
C3250      C3251   1.403       .  A
C3250      C3254   1.531       .  S
C3251      H3255   1.083       .  S
C3252      F3265   1.385       .  S
C3252      F3267   1.381       .  S
C3254      F3262   1.384       .  S
C3254      F3263   1.383       .  S
C3254      F3264   1.383   1_565  S
C3268      C3269   1.404       .  A
C3268      C3758   1.409       .  A
C3268      H3278   1.083       .  S
C3269      C3270   1.415       .  A
C3269      C3274   1.487       .  S
C3270      C3271   1.408       .  A
C3270      C3275   1.520       .  S
C3271      C3757   1.405       .  A
C3271      H3276   1.083       .  S
C3272      C3756   1.405       .  A
C3272      C3273   1.417   1_554  A
C3273      C3753   1.409       .  A
C3273      C3277   1.519       .  S
C3274      C3279   1.413       .  A
C3274      C3283   1.400       .  A
C3275      F3291   1.382       .  S
C3275      F3292   1.381       .  S
C3275      F3293   1.384       .  S
C3277      F3288   1.384       .  S
C3277      F3289   1.384   1_556  S
C3277      F3290   1.382       .  S
C3279      C3280   1.406       .  A
C3279      C3284   1.522       .  S
C3280      C3281   1.411       .  A
C3280      H3285   1.082       .  S
C3281      C3282   1.425       .  A
C3282      C3283   1.410       .  A
C3282      C3286   1.518       .  S
C3283      H3287   1.083       .  S
C3284      F3297   1.385       .  S
C3284      F3298   1.382       .  S
C3284      F3299   1.382       .  S
C3286      F3294   1.382       .  S
C3286      F3295   1.379       .  S
C3286      F3296   1.384       .  S
C3300      C3301   1.401       .  A
C3300      C3305   1.404       .  A
C3300      H3310   1.083       .  S
C3301      C3302   1.417       .  A
C3301      C3306   1.479       .  S
C3302      C3303   1.404       .  A
C3302      C3307   1.518       .  S
C3303      C3304   1.400       .  A
C3303      H3308   1.083       .  S
C3304      C3305   1.419       .  A
C3304      C3405   1.475       .  S
C3305      C3794   1.521       .  S
C3306      C3311   1.416       .  A
C3306      C3315   1.398       .  A
C3307      F3323   1.382       .  S
C3307      F3324   1.381       .  S
C3307      F3325   1.385       .  S
C3309      C3790   1.520   1_554  S
C3309      F3320   1.381       .  S
C3309      F3806   1.385       .  S
C3309      F3322   1.383       .  S
C3311      C3312   1.409       .  A
C3311      C3316   1.518       .  S
C3312      C3313   1.403       .  A
C3312      H3317   1.080       .  S
C3313      C3314   1.415       .  A
C3314      C3315   1.401       .  A
C3314      C3318   1.514       .  S
C3315      H3319   1.084       .  S
C3316      F3814   1.385       .  S
C3316      F3815   1.382       .  S
C3316      F3816   1.381       .  S
C3318      F3326   1.382       .  S
C3318      F3327   1.383       .  S
C3318      F3328   1.385       .  S
F3321      C3794   1.385       .  S
F3329      C3801   1.384       .  S
F3330      C3801   1.383   1_554  S
F3331      C3801   1.383       .  S
C3332      C3333   1.402       .  A
C3332      C3337   1.405       .  A
C3332      H3342   1.083       .  S
C3333      C3334   1.416       .  A
C3333      C3338   1.479       .  S
C3334      C3335   1.406       .  A
C3334      C3339   1.521       .  S
C3335      C3336   1.402       .  A
C3335      H3340   1.083       .  S
C3336      C3337   1.414       .  A
C3337      C3341   1.518       .  S
C3338      C3343   1.410       .  A
C3338      C3347   1.403       .  A
C3339      F3355   1.382       .  S
C3339      F3356   1.382       .  S
C3339      F3357   1.384       .  S
C3341      F3352   1.383       .  S
C3341      F3353   1.384       .  S
C3341      F3354   1.383       .  S
C3343      C3344   1.399       .  A
C3343      C3348   1.523       .  S
C3344      C3345   1.410       .  A
C3344      H3349   1.082       .  S
C3345      C3346   1.423       .  A
C3346      C3347   1.412       .  A
C3346      C3350   1.520       .  S
C3347      H3351   1.083       .  S
C3348      F3361   1.384       .  S
C3348      F3362   1.382       .  S
C3348      F3363   1.382       .  S
C3350      F3358   1.382       .  S
C3350      F3359   1.382       .  S
C3350      F3360   1.385       .  S
C3364      C3365   1.402       .  A
C3364      C3369   1.409       .  A
C3364      H3374   1.083       .  S
C3365      C3366   1.417       .  A
C3365      C3370   1.487       .  S
C3366      C3367   1.407       .  A
C3366      C3371   1.521       .  S
C3367      C3368   1.405       .  A
C3367      H3372   1.083       .  S
C3368      C3369   1.418       .  A
C3369      C3373   1.518       .  S
C3370      C3375   1.415       .  A
C3370      C3379   1.401       .  A
C3371      F3387   1.382       .  S
C3371      F3388   1.383       .  S
C3371      F3389   1.385       .  S
C3373      F3384   1.384       .  S
C3373      F3385   1.381       .  S
C3373      F3386   1.383       .  S
C3375      C3376   1.406       .  A
C3375      C3380   1.519       .  S
C3376      C3377   1.405       .  A
C3376      H3381   1.079       .  S
C3377      C3378   1.419       .  A
C3378      C3379   1.408       .  A
C3378      C3382   1.511       .  S
C3379      H3383   1.084       .  S
C3380      F3393   1.385       .  S
C3380      F3394   1.382       .  S
C3380      F3395   1.382       .  S
C3382      F3390   1.379       .  S
C3382      F3391   1.385       .  S
C3382      F3392   1.383       .  S
C3396      C3397   1.401       .  A
C3396      C3401   1.404       .  A
C3396      C3853   1.488       .  S
C3397      C3398   1.399       .  A
C3397      H3402   1.084       .  S
C3398      C3399   1.396       .  A
C3398      C3821   1.473       .  S
C3399      C3400   1.408       .  A
C3399      H3403   1.080       .  S
C3400      C3401   1.419       .  A
C3400      C3409   1.508       .  S
C3401      H3404   1.077       .  S
C3405      C3406   1.399       .  A
C3405      C3410   1.395       .  A
C3406      C3407   1.400       .  A
C3407      C3408   1.405       .  A
C3407      C3757   1.486       .  S
C3408      C3409   1.419       .  A
C3408      H3412   1.079       .  S
C3409      C3410   1.408       .  A
C3410      H3413   1.079       .  S
C3414      C3415   1.406       .  A
C3414      C3419   1.407       .  A
C3414      C3702   1.493       .  S
C3415      C3416   1.403       .  A
C3415      H3420   1.084       .  S
C3416      C3417   1.401       .  A
C3416      C3725   1.488       .  S
C3417      C3418   1.416       .  A
C3417      H3421   1.079       .  S
C3418      C3419   1.415       .  A
C3418      C3425   1.512       .  S
C3419      H3422   1.079       .  S
C3423      C3424   1.407       .  A
C3423      C3428   1.401       .  A
C3424      C3425   1.418       .  A
C3424      H3429   1.080       .  S
C3425      C3426   1.414       .  A
C3426      C3427   1.402       .  A
C3426      H3430   1.079       .  S
C3427      C3428   1.400       .  A
C3427      C3670   1.488       .  S
C3432      C3433   1.405       .  A
C3432      C3437   1.405       .  A
C3432      C3606   1.488       .  S
C3433      C3434   1.414       .  A
C3433      H3438   1.080       .  S
C3434      C3435   1.412       .  A
C3434      C3445   1.504       .  S
C3435      C3436   1.398       .  A
C3435      H3439   1.077       .  S
C3436      C3437   1.401       .  A
C3436      C3574   1.482       .  S
C3437      H3440   1.084       .  S
C3441      C3442   1.402       .  A
C3441      C3446   1.405       .  A
C3442      C3443   1.395       .  A
C3443      C3444   1.397       .  A
C3443      C3501   1.476       .  S
C3444      C3445   1.413       .  A
C3444      H3448   1.077       .  S
C3445      C3446   1.412       .  A
C3446      H3449   1.078       .  S
O3450     Mn3476   2.093       .  S
C3451      C3862   1.495       .  S
C3451      O3484   1.276       .  A
C3451      O3481   1.272       .  A
O3452     Mn3459   2.182       .  S
O3452     Mn3470   2.117       .  S
O3452     Mn3474   2.165       .  S
O3453     Mn3487   2.106       .  S
O3453      C3463   1.274       .  A
O3454     Mn3470   2.103       .  S
O3454      C3477   1.275       .  A
O3455     Mn3474   2.107       .  S
O3455      C3482   1.252       .  A
O3456     Mn3476   1.977       .  S
O3456      C3472   1.223       .  S
C3457      C3510   1.495       .  S
C3457      O3460   1.251       .  A
C3457      O3483   1.220       .  S
O3458     Mn3459   2.180       .  S
O3458     Mn3492   2.129       .  S
O3458     Mn3474   2.168       .  S
Mn3459     O3464   2.103       .  S
O3461     Mn3468   2.080       .  S
O3461      C3463   1.269       .  A
C3462      C3565   1.508       .  S
C3462      O3488   1.262       .  A
C3462      O3475   1.210       .  S
C3463      C3798   1.471       .  S
O3464      C3489   1.252       .  A
O3465     Mn3468   2.126       .  S
O3465     Mn3487   2.113       .  S
O3466     Mn3470   1.960       .  S
O3466     Mn3492   1.951       .  S
O3466      C3489   1.219       .  S
C3467      C3629   1.494       .  S
C3467      O3469   1.274       .  A
Mn3468     O3481   2.094       .  S
O3469     Mn3492   2.101       .  S
Mn3470     O3486   2.100       .  S
Mn3470     O3480   1.975       .  S
O3471     Mn3476   2.104       .  S
C3472      C3661   1.492       .  S
C3472      O3490   1.252       .  A
C3473      C3597   1.500       .  S
C3473      O3486   1.274       .  A
O3475     Mn3478   1.958       .  S
Mn3476     O3494   1.948       .  S
C3477      C3542   1.511       .  S
Mn3478     O3485   2.116       .  S
Mn3478     O3493   2.100       .  S
Mn3478     O3483   1.975       .  S
C3479      C3693   1.493       .  S
C3479      O3495   1.272       .  A
O3480     Mn3492   1.963       .  S
O3480      C3482   1.221       .  S
C3482      C3766   1.501       .  S
O3484     Mn3487   2.121       .  S
C3489      C3830   1.487       .  S
O3491      C3496   1.257       .  A
Mn3492     O3495   2.098       .  S
O3494      C3496   1.213       .  S
C3496      C3734   1.504       .  S
C3497      C3498   1.398   1_455  A
C3497      C3502   1.403       .  A
C3498      C3499   1.415       .  A
C3498      C3503   1.481       .  S
C3500      C3501   1.402       .  A
C3500      H3505   1.083       .  S
C3503      C3508   1.412       .  A
C3503      C3512   1.399       .  A
C3504      F3520   1.383       .  S
C3504      F3522   1.384       .  S
C3506      F3517   1.383       .  S
C3506      F3518   1.385       .  S
C3506      F3519   1.382       .  S
C3508      C3509   1.403       .  A
C3508      C3513   1.520       .  S
C3509      C3510   1.409       .  A
C3509      H3514   1.082       .  S
C3510      C3511   1.425       .  A
C3511      C3512   1.409       .  A
C3513      F3526   1.384       .  S
C3513      F3527   1.383       .  S
C3513      F3528   1.382       .  S
C3515      F3523   1.385       .  S
C3515      F3524   1.379       .  S
C3515      F3525   1.382       .  S
C3529      C3530   1.402       .  A
C3529      C3534   1.410   1_556  A
C3529      H3539   1.083       .  S
C3530      C3535   1.492       .  S
C3531      C3532   1.405       .  A
C3531      C3536   1.521       .  S
C3532      H3537   1.083       .  S
C3533      C3534   1.424       .  A
C3535      C3540   1.414       .  A
C3535      C3544   1.398   1_655  A
C3536      F3552   1.382       .  S
C3536      F3553   1.383       .  S
C3536      F3554   1.385       .  S
C3538      F3550   1.380       .  S
C3538      F3551   1.383       .  S
C3540      C3541   1.409       .  A
C3540      C3545   1.521       .  S
C3541      C3542   1.415       .  A
C3541      H3546   1.082       .  S
C3542      C3543   1.431   1_655  A
C3543      C3544   1.410       .  A
C3545      F3558   1.384       .  S
C3545      F3559   1.381       .  S
C3545      F3560   1.384       .  S
C3547      F3556   1.385       .  S
C3547      F3557   1.372       .  S
C3561      C3562   1.393       .  A
C3561      C3566   1.405       .  A
C3561      H3571   1.083       .  S
C3562      C3567   1.493       .  S
C3563      C3564   1.415       .  A
C3563      C3568   1.517       .  S
C3564      H3569   1.082       .  S
C3565      C3566   1.438       .  A
C3566      C3570   1.526       .  S
C3567      C3572   1.420       .  A
C3568      F3584   1.383       .  S
C3568      F3586   1.385       .  S
C3570      F3581   1.385       .  S
C3570      F3582   1.382   1_655  S
C3570      F3583   1.382       .  S
C3572      C3573   1.408       .  A
C3572      C3577   1.520       .  S
C3573      C3574   1.401       .  A
C3573      H3578   1.083       .  S
C3575      C3576   1.412       .  A
C3575      C3579   1.515       .  S
C3576      H3580   1.083       .  S
C3577      F3590   1.385       .  S
C3577      F3591   1.382       .  S
C3577      F3592   1.381       .  S
C3579      F3587   1.383       .  S
C3579      F3588   1.383       .  S
C3579      F3589   1.384       .  S
C3593      C3598   1.406       .  A
C3593      H3603   1.083       .  S
C3594      C3595   1.416       .  A
C3594      C3599   1.494       .  S
C3595      C3596   1.410       .  A
C3595      C3600   1.519       .  S
C3596      C3597   1.409       .  A
C3596      H3601   1.082       .  S
C3598      C3602   1.519       .  S
C3599      C3608   1.404       .  A
C3600      F3616   1.381       .  S
C3600      F3617   1.382       .  S
C3600      F3618   1.384       .  S
C3602      F3613   1.383       .  S
C3602      F3614   1.385       .  S
C3602      F3615   1.382       .  S
C3604      C3605   1.406       .  A
C3604      C3609   1.518       .  S
C3605      H3610   1.083       .  S
C3606      C3607   1.418       .  A
C3607      C3608   1.407       .  A
C3607      C3611   1.519       .  S
C3608      H3612   1.084       .  S
C3609      F3622   1.384       .  S
C3609      F3623   1.382       .  S
C3609      F3624   1.382       .  S
C3611      F3619   1.382       .  S
C3611      F3620   1.382       .  S
C3611      F3621   1.384       .  S
C3625      C3626   1.402       .  A
C3625      C3630   1.411       .  A
C3625      H3635   1.083       .  S
C3626      C3627   1.416       .  A
C3626      C3631   1.493       .  S
C3627      C3628   1.411       .  A
C3628      C3629   1.407       .  A
C3629      C3630   1.424       .  A
C3630      C3634   1.521   1_565  S
C3631      C3640   1.403       .  A
C3632      F3649   1.383       .  S
C3632      F3650   1.383       .  S
C3634      F3645   1.383       .  S
C3634      F3646   1.384       .  S
C3634      F3647   1.384   1_545  S
C3636      C3637   1.408   1_556  A
C3636      C3641   1.515       .  S
C3637      H3642   1.083       .  S
C3639      C3643   1.516       .  S
C3640      H3644   1.085       .  S
C3641      F3654   1.384   1_556  S
C3641      F3655   1.382       .  S
C3641      F3656   1.383       .  S
C3643      F3651   1.385       .  S
C3643      F3652   1.380       .  S
C3643      F3653   1.383       .  S
C3657      C3658   1.400       .  A
C3657      C3662   1.409       .  A
C3657      H3667   1.083       .  S
C3658      C3663   1.479       .  S
C3659      C3660   1.400       .  A
C3659      C3664   1.521       .  S
C3660      H3665   1.080       .  S
C3661      C3662   1.426       .  A
C3662      C3666   1.516       .  S
C3663      C3672   1.403       .  A
C3664      F3680   1.383       .  S
C3664      F3681   1.381       .  S
C3664      F3682   1.384       .  S
C3666      F3677   1.385       .  S
C3666      F3678   1.384       .  S
C3666      F3679   1.380       .  S
C3669      H3674   1.085       .  S
C3671      C3672   1.405       .  A
C3671      C3675   1.518       .  S
C3672      H3676   1.083       .  S
C3673      F3686   1.383       .  S
C3675      F3683   1.385       .  S
C3675      F3684   1.384   1_556  S
C3675      F3685   1.380       .  S
C3689      C3690   1.403       .  A
C3689      C3694   1.412       .  A
C3689      H3699   1.083       .  S
C3690      C3691   1.417       .  A
C3690      C3695   1.494       .  S
C3691      C3692   1.409       .  A
C3692      C3693   1.406       .  A
C3693      C3694   1.419       .  A
C3694      C3698   1.512   1_565  S
C3695      C3700   1.418       .  A
C3695      C3704   1.402       .  A
C3696      F3713   1.383       .  S
C3696      F3714   1.384       .  S
C3698      F3709   1.379       .  S
C3698      F3710   1.384       .  S
C3698      F3711   1.382   1_545  S
C3700      C3701   1.411       .  A
C3701      C3702   1.405       .  A
C3701      H3706   1.083   1_565  S
C3702      C3703   1.422       .  A
C3703      C3704   1.411       .  A
C3703      C3707   1.520       .  S
C3704      H3708   1.083       .  S
C3705      F3718   1.384       .  S
C3705      F3720   1.383       .  S
C3707      F3715   1.381       .  S
C3707      F3716   1.383       .  S
C3707      F3717   1.384       .  S
C3721      C3722   1.405       .  A
C3721      C3726   1.411       .  A
C3721      H3731   1.083       .  S
C3722      C3723   1.420       .  A
C3722      C3727   1.494       .  S
C3723      C3724   1.411       .  A
C3724      C3725   1.403       .  A
C3724      H3729   1.083   1_565  S
C3725      C3726   1.414       .  A
C3726      C3730   1.515       .  S
C3727      C3732   1.416       .  A
C3727      C3736   1.396       .  A
C3728      F3745   1.381       .  S
C3728      F3746   1.384       .  S
C3730      F3741   1.382       .  S
C3730      F3742   1.382       .  S
C3730      F3743   1.383       .  S
C3732      C3733   1.415       .  A
C3733      C3734   1.411       .  A
C3734      C3735   1.433       .  A
C3735      C3736   1.407       .  A
C3735      C3739   1.524       .  S
C3736      H3740   1.083       .  S
C3737      F3750   1.385       .  S
C3737      F3752   1.382       .  S
C3739      F3747   1.385       .  S
C3739      F3748   1.383       .  S
C3739      F3749   1.381   1_565  S
C3753      C3754   1.403       .  A
C3753      H3763   1.083       .  S
C3754      C3755   1.416       .  A
C3754      C3759   1.489       .  S
C3755      C3756   1.409   1_556  A
C3755      C3760   1.519       .  S
C3756      H3761   1.083       .  S
C3757      C3758   1.417       .  A
C3758      C3762   1.518       .  S
C3759      C3764   1.413       .  A
C3759      C3768   1.400       .  A
C3760      F3776   1.383   1_556  S
C3760      F3777   1.382       .  S
C3760      F3778   1.384   1_556  S
C3762      F3773   1.385       .  S
C3762      F3774   1.383       .  S
C3762      F3775   1.381       .  S
C3764      C3765   1.405       .  A
C3764      C3769   1.520       .  S
C3765      C3766   1.411       .  A
C3765      H3770   1.082       .  S
C3766      C3767   1.427       .  A
C3767      C3768   1.412       .  A
C3767      C3771   1.517       .  S
C3768      H3772   1.083       .  S
C3769      F3782   1.385       .  S
C3769      F3783   1.382       .  S
C3769      F3784   1.382       .  S
C3771      F3779   1.382       .  S
C3771      F3780   1.380       .  S
C3771      F3781   1.385       .  S
C3785      C3786   1.402       .  A
C3785      C3790   1.407       .  A
C3785      H3795   1.083       .  S
C3786      C3787   1.418       .  A
C3786      C3791   1.479       .  S
C3787      C3788   1.404       .  A
C3787      C3792   1.520       .  S
C3788      C3789   1.401   1_556  A
C3788      H3793   1.085       .  S
C3789      C3790   1.418   1_554  A
C3791      C3796   1.414       .  A
C3791      C3800   1.401       .  A
C3792      F3808   1.383       .  S
C3792      F3809   1.381       .  S
C3792      F3810   1.383       .  S
C3794      F3805   1.382       .  S
C3794      F3807   1.383       .  S
C3796      C3797   1.405       .  A
C3796      C3801   1.516       .  S
C3797      C3798   1.398       .  A
C3797      H3802   1.075       .  S
C3798      C3799   1.415       .  A
C3799      C3800   1.404       .  A
C3799      C3803   1.515       .  S
C3800      H3804   1.083       .  S
C3803      F3811   1.383       .  S
C3803      F3812   1.383       .  S
C3803      F3813   1.384       .  S
C3817      C3818   1.402       .  A
C3817      C3822   1.404       .  A
C3817      H3827   1.083       .  S
C3818      C3819   1.414       .  A
C3818      C3823   1.475       .  S
C3819      C3820   1.405       .  A
C3819      C3824   1.521       .  S
C3820      C3821   1.403       .  A
C3820      H3825   1.083       .  S
C3821      C3822   1.414       .  A
C3822      C3826   1.518       .  S
C3823      C3828   1.410       .  A
C3823      C3832   1.402       .  A
C3824      F3840   1.382       .  S
C3824      F3841   1.382       .  S
C3824      F3842   1.384       .  S
C3826      F3837   1.382       .  S
C3826      F3838   1.384       .  S
C3826      F3839   1.384       .  S
C3828      C3829   1.397       .  A
C3828      C3833   1.523       .  S
C3829      C3830   1.410       .  A
C3829      H3834   1.082       .  S
C3830      C3831   1.423       .  A
C3831      C3832   1.410       .  A
C3831      C3835   1.520       .  S
C3832      H3836   1.083       .  S
C3833      F3846   1.385       .  S
C3833      F3847   1.382       .  S
C3833      F3848   1.382       .  S
C3835      F3843   1.382       .  S
C3835      F3844   1.382       .  S
C3835      F3845   1.385       .  S
C3849      C3850   1.405       .  A
C3849      C3854   1.411       .  A
C3849      H3859   1.083       .  S
C3850      C3851   1.419       .  A
C3850      C3855   1.494       .  S
C3851      C3852   1.407       .  A
C3851      C3856   1.520       .  S
C3852      C3853   1.403       .  A
C3852      H3857   1.083       .  S
C3853      C3854   1.418       .  A
C3854      C3858   1.519       .  S
C3855      C3860   1.416       .  A
C3855      C3864   1.404       .  A
C3856      F3872   1.382       .  S
C3856      F3873   1.383       .  S
C3856      F3874   1.385       .  S
C3858      F3869   1.383       .  S
C3858      F3870   1.380       .  S
C3858      F3871   1.383       .  S
C3860      C3861   1.407       .  A
C3860      C3865   1.521       .  S
C3861      C3862   1.406       .  A
C3861      H3866   1.079       .  S
C3862      C3863   1.419       .  A
C3863      C3864   1.412       .  A
C3863      C3867   1.513       .  S
C3864      H3868   1.083       .  S
C3865      F3878   1.385       .  S
C3865      F3879   1.382       .  S
C3865      F3880   1.383       .  S
C3867      F3875   1.380       .  S
C3867      F3876   1.384       .  S
C3867      F3877   1.383       .  S
