geometry optimzed in LAMMPS
_audit_creation_date              2020-11-30 
_audit_creation_method            'lammps2cif' 
_symmetry_space_group_name_H-M    'P1' 
_symmetry_Int_Tables_number       1 
_symmetry_cell_setting            triclinic 
loop_ 
_symmetry_equiv_pos_as_xyz 
  x,y,z 
_cell_length_a                    43.56636441 
_cell_length_b                    43.53484764111428 
_cell_length_c                    86.9001241985739 
_cell_angle_alpha                 90.15183536432211 
_cell_angle_beta                  90.03711281931176 
_cell_angle_gamma                 89.76520249607604 
loop_ 
_atom_site_label 
_atom_site_type_symbol 
_atom_site_fract_x 
_atom_site_fract_y 
_atom_site_fract_z 
_atom_site_charge 
O1          O  0.99653918  0.49825766  0.70822406    -0.72200
O2          O  0.98467162  0.00250143  0.66491087    -0.72500
O3          O  0.99102658  0.04418112  0.68748365    -0.72300
O4          O  0.98994330  0.45702498  0.68553800    -0.72300
O5          O  0.44013095  0.45837384  0.68824145    -0.72300
O6          O  0.44201105  0.04521916  0.69188786    -0.72300
O7          O  0.43529267  0.50541741  0.66842934    -0.72300
O8          O  0.44716748  0.99736331  0.71180935    -0.72400
V9          V  0.98958404  0.00058158  0.68661909     1.35200
V10         V  0.44209044  0.00169195  0.69005957     1.35200
C11         C  0.47393179  0.99632421  0.71753104     0.77000
C12         C  0.45791687  0.00473165  0.65928927     0.77000
C13         C  0.96667319  0.05935436  0.68984455     0.76900
C14         C  0.96488187  0.44250484  0.68613665     0.76900
O15         O  0.44593336  0.25498191  0.70935744    -0.72200
O16         O  0.43385443  0.25027764  0.66578513    -0.72500
O17         O  0.43953487  0.20871010  0.68870075    -0.72300
O18         O  0.44003877  0.29583147  0.68656774    -0.72300
O19         O  0.99028810  0.29427061  0.68404438    -0.72300
O20         O  0.98891052  0.20705720  0.68401682    -0.72300
O21         O  0.98357320  0.25095943  0.66232404    -0.72300
O22         O  0.99590779  0.25079155  0.70563902    -0.72400
V23         V  0.44074397  0.25230084  0.68753649     1.35200
V24         V  0.98869201  0.25071202  0.68404511     1.35200
C25         C  0.97352687  0.25390200  0.71476657     0.77000
C26         C  0.95696044  0.25081624  0.65650454     0.77000
C27         C  0.46384041  0.19326088  0.68665508     0.76900
C28         C  0.46507008  0.31027145  0.68558514     0.76900
O29         O  0.31409312  0.99369888  0.67042920    -0.72200
O30         O  0.29497178  0.48907140  0.71331068    -0.72500
O31         O  0.30455631  0.44821522  0.69075614    -0.72300
O32         O  0.30433730  0.03514022  0.69296238    -0.72300
O33         O  0.25594624  0.03588782  0.68722843    -0.72300
O34         O  0.25581903  0.44892234  0.68585870    -0.72300
O35         O  0.24628905  0.99090920  0.70805780    -0.72300
O36         O  0.26541595  0.49378086  0.66519971    -0.72400
V37         V  0.30353290  0.49164512  0.69180458     1.35200
V38         V  0.25679930  0.49237372  0.68670221     1.35200
C39         C  0.29290196  0.49460329  0.66046673     0.77000
C40         C  0.26744951  0.48844925  0.71799765     0.77000
C41         C  0.28012481  0.43363676  0.68799479     0.76900
C42         C  0.28033923  0.05046750  0.69007000     0.76900
O43         O  0.24829636  0.24589074  0.70692657    -0.72200
O44         O  0.26429982  0.24034753  0.66391471    -0.72500
O45         O  0.25471355  0.19946118  0.68649025    -0.72300
O46         O  0.25798072  0.28632077  0.68443055    -0.72300
O47         O  0.30645055  0.28491028  0.68993858    -0.72300
O48         O  0.30388548  0.19795364  0.69010183    -0.72300
O49         O  0.31329916  0.24100501  0.66837265    -0.72300
O50         O  0.29712055  0.24222324  0.71155326    -0.72400
V51         V  0.25726507  0.24291596  0.68551015     1.35200
V52         V  0.30426292  0.24147620  0.68989759     1.35200
C53         C  0.27002445  0.24552632  0.71658643     0.77000
C54         C  0.29146532  0.24009071  0.65875615     0.77000
C55         C  0.27880273  0.18374797  0.68851740     0.76900
C56         C  0.28262106  0.30055427  0.68722572     0.76900
O57         O  0.49180295  0.99621721  0.79193415    -0.72200
O58         O  0.99459118  0.98783159  0.83504244    -0.72500
O59         O  0.03661110  0.99249911  0.81268206    -0.72300
O60         O  0.44958323  0.99087779  0.81437409    -0.72300
O61         O  0.44977537  0.44121725  0.81215595    -0.72300
O62         O  0.03701272  0.44303265  0.80914770    -0.72300
O63         O  0.49608179  0.43645933  0.83252217    -0.72300
O64         O  0.98994261  0.44711906  0.78885235    -0.72400
V65         V  0.99312965  0.99130485  0.81322438     1.35200
V66         V  0.99333591  0.44361574  0.81069711     1.35200
C67         C  0.98950720  0.47349322  0.78274476     0.77000
C68         C  0.99577590  0.46151879  0.84124408     0.77000
C69         C  0.05167972  0.96791035  0.81086202     0.76900
C70         C  0.43473747  0.96603342  0.81374850     0.76900
O71         O  0.49690389  0.29610445  0.78647627    -0.72200
O72         O  0.00244252  0.30391953  0.83002877    -0.72500
O73         O  0.04355460  0.30063904  0.80691786    -0.72300
O74         O  0.45664263  0.29985972  0.80961163    -0.72300
O75         O  0.45862003  0.25038675  0.81253124    -0.72300
O76         O  0.04554082  0.25121250  0.80947548    -0.72300
O77         O  0.50481163  0.25701233  0.83271167    -0.72300
O78         O  0.99945042  0.24508590  0.78894326    -0.72400
V79         V  0.00008527  0.29833407  0.80825502     1.35200
V80         V  0.00198324  0.25075681  0.81067364     1.35200
C81         C  0.99683468  0.26822845  0.78025090     0.77000
C82         C  0.00365349  0.28068004  0.83875954     0.77000
C83         C  0.05953843  0.27645889  0.80796673     0.76900
C84         C  0.44279184  0.27469881  0.81153104     0.76900
O85         O  0.24008524  0.43791716  0.83369246    -0.72200
O86         O  0.24549793  0.44668990  0.78988401    -0.72500
O87         O  0.28607284  0.44124671  0.81299963    -0.72300
O88         O  0.19916575  0.44299337  0.81031309    -0.72300
O89         O  0.19936211  0.99241677  0.81397972    -0.72300
O90         O  0.28682001  0.99098466  0.81447690    -0.72300
O91         O  0.24357292  0.99628685  0.79238600    -0.72300
O92         O  0.24258786  0.98743568  0.83600911    -0.72400
V93         V  0.24264027  0.44315482  0.81178684     1.35200
V94         V  0.24305190  0.99082395  0.81417888     1.35200
C95         C  0.24125822  0.96140069  0.84239757     0.77000
C96         C  0.24531276  0.97305193  0.78364140     0.77000
C97         C  0.30141808  0.46574372  0.81380430     0.76900
C98         C  0.18442587  0.46789505  0.81171022     0.76900
O99         O  0.24884177  0.25795578  0.83472395    -0.72200
O100        O  0.25441117  0.24336352  0.79174366    -0.72500
O101        O  0.29516053  0.25098723  0.81448892    -0.72300
O102        O  0.20809462  0.25064796  0.81188903    -0.72300
O103        O  0.20793172  0.29991626  0.80850304    -0.72300
O104        O  0.29502931  0.29984513  0.80963163    -0.72300
O105        O  0.25268894  0.29243543  0.78745569    -0.72300
O106        O  0.25039919  0.30714170  0.83085405    -0.72400
V107        V  0.25159065  0.25172491  0.81315438     1.35200
V108        V  0.25151307  0.29893221  0.80921562     1.35200
C109        C  0.24863364  0.28488431  0.84018017     0.77000
C110        C  0.25473422  0.26528384  0.78224726     0.77000
C111        C  0.30999888  0.27538779  0.81200736     0.76900
C112        C  0.19305591  0.27514226  0.80969569     0.76900
O113        O  0.44020988  0.00586597  0.33328122    -0.72200
O114        O  0.45225405  0.50074126  0.28995710    -0.72500
O115        O  0.44595353  0.46032795  0.31278244    -0.72300
O116        O  0.44601985  0.04703346  0.31041750    -0.72300
O117        O  0.99516303  0.04777284  0.31457699    -0.72300
O118        O  0.99512260  0.46038062  0.31577325    -0.72300
O119        O  0.00157682  0.00271480  0.29351097    -0.72300
O120        O  0.98934670  0.50514591  0.33676516    -0.72400
V121        V  0.44709503  0.50360570  0.31166916     1.35200
V122        V  0.99439839  0.50409165  0.31508517     1.35200
C123        C  0.96270840  0.50565165  0.34254485     0.77000
C124        C  0.97906818  0.50042193  0.28443567     0.77000
C125        C  0.47040670  0.44521330  0.31463407     0.76900
C126        C  0.47044110  0.06216175  0.31224486     0.76900
O127        O  0.43834524  0.25177719  0.33015304    -0.72200
O128        O  0.44937184  0.25769661  0.28665933    -0.72500
O129        O  0.44276007  0.21091652  0.30702561    -0.72300
O130        O  0.44503854  0.29816764  0.31006288    -0.72300
O131        O  0.99420721  0.29650717  0.31316621    -0.72300
O132        O  0.99235563  0.20992028  0.30981632    -0.72300
O133        O  0.99878915  0.25640183  0.28974308    -0.72300
O134        O  0.98783656  0.24981653  0.33298693    -0.72400
V135        V  0.44478472  0.25457261  0.30848394     1.35200
V136        V  0.99229439  0.25322567  0.31132397     1.35200
C137        C  0.96133384  0.24954257  0.33889127     0.77000
C138        C  0.97609207  0.25873989  0.28072654     0.77000
C139        C  0.46712451  0.19521982  0.30837237     0.76900
C140        C  0.47015317  0.31200214  0.31236200     0.76900
O141        O  0.31208150  0.50367153  0.33468706    -0.72200
O142        O  0.30140659  0.99924698  0.29117260    -0.72500
O143        O  0.30836471  0.04503301  0.31173674    -0.72300
O144        O  0.30558361  0.45832740  0.31394490    -0.72300
O145        O  0.25610664  0.45991726  0.31617919    -0.72300
O146        O  0.25909800  0.04739509  0.31528512    -0.72300
O147        O  0.25206449  0.50296342  0.29420109    -0.72300
O148        O  0.26262100  0.00419575  0.33751309    -0.72400
V149        V  0.30590211  0.00168904  0.31294411     1.35200
V150        V  0.25841481  0.00364019  0.31576849     1.35200
C151        C  0.28903033  0.00368013  0.34353025     0.77000
C152        C  0.27480948  0.00004035  0.28531223     0.77000
C153        C  0.28434327  0.06108359  0.31316768     0.76900
C154        C  0.28046430  0.44411576  0.31510826     0.76900
O155        O  0.25536165  0.25339276  0.29118272    -0.72200
O156        O  0.26631182  0.25031510  0.33468945    -0.72500
O157        O  0.26015870  0.29532001  0.31386095    -0.72300
O158        O  0.26137796  0.20826046  0.31199856    -0.72300
O159        O  0.31069436  0.20882371  0.30846902    -0.72300
O160        O  0.30958732  0.29589216  0.31143837    -0.72300
O161        O  0.31569080  0.24976884  0.33172646    -0.72300
O162        O  0.30477496  0.25567789  0.28817228    -0.72400
V163        V  0.26177882  0.25177028  0.31287992     1.35200
V164        V  0.30925111  0.25244078  0.30999106     1.35200
C165        C  0.27817869  0.25584924  0.28227321     0.77000
C166        C  0.29278831  0.25004910  0.34070790     0.77000
C167        C  0.28473808  0.31058651  0.31308052     0.76900
C168        C  0.28611731  0.19366665  0.30980328     0.76900
O169        O  0.41588559  0.99604222  0.45884472    -0.72200
O170        O  0.42544058  0.49505026  0.41529654    -0.72500
O171        O  0.42083448  0.45152135  0.43726635    -0.72300
O172        O  0.42096065  0.03910783  0.43683600    -0.72300
O173        O  0.97001407  0.03842185  0.44114884    -0.72300
O174        O  0.97024844  0.45151888  0.43846245    -0.72300
O175        O  0.97452515  0.99758975  0.41815650    -0.72300
O176        O  0.96516143  0.49231415  0.46154645    -0.72400
V177        V  0.42166217  0.49534667  0.43712134     1.35200
V178        V  0.96900778  0.49496186  0.43979873     1.35200
C179        C  0.93883073  0.49386464  0.46764202     0.77000
C180        C  0.95151625  0.49723721  0.40929298     0.77000
C181        C  0.44589421  0.43667165  0.43765750     0.76900
C182        C  0.44564235  0.05377473  0.43901849     0.76900
O183        O  0.42412169  0.24542097  0.45650244    -0.72200
O184        O  0.42558343  0.24684109  0.41266554    -0.72500
O185        O  0.42370874  0.20242219  0.43424702    -0.72300
O186        O  0.42552120  0.28939425  0.43510342    -0.72300
O187        O  0.97501525  0.28854949  0.43423211    -0.72300
O188        O  0.97347785  0.20098251  0.43580741    -0.72300
O189        O  0.97518847  0.24308319  0.41308528    -0.72300
O190        O  0.97378226  0.24631710  0.45681901    -0.72400
V191        V  0.42571265  0.24593872  0.43461449     1.35200
V192        V  0.97344499  0.24474757  0.43494625     1.35200
C193        C  0.94867255  0.24595705  0.46409331     0.77000
C194        C  0.95069137  0.24518021  0.40532936     0.77000
C195        C  0.44808461  0.18675500  0.43526685     0.76900
C196        C  0.45057231  0.30385543  0.43475449     0.76900
O197        O  0.33143889  0.99944860  0.41629648    -0.72200
O198        O  0.33817735  0.49631916  0.46012582    -0.72500
O199        O  0.33449017  0.45416476  0.43745228    -0.72300
O200        O  0.33526318  0.04130284  0.43890059    -0.72300
O201        O  0.28547102  0.04185600  0.43947748    -0.72300
O202        O  0.28511251  0.45466322  0.44060553    -0.72300
O203        O  0.28859236  0.99946218  0.46182534    -0.72300
O204        O  0.28181754  0.49729222  0.41829621    -0.72400
V205        V  0.33391363  0.49776824  0.43823245     1.35200
V206        V  0.28621569  0.49826955  0.44003422     1.35200
C207        C  0.30534733  0.49906020  0.40983835     0.77000
C208        C  0.31440206  0.49816758  0.46847650     0.77000
C209        C  0.30972632  0.43947023  0.43911566     0.76900
C210        C  0.31048659  0.05648300  0.43920207     0.76900
O211        O  0.28767975  0.24732273  0.45950610    -0.72200
O212        O  0.28376972  0.24918802  0.41574120    -0.72500
O213        O  0.28508143  0.20466874  0.43714383    -0.72300
O214        O  0.28638977  0.29183529  0.43815143    -0.72300
O215        O  0.33610577  0.29093609  0.43678960    -0.72300
O216        O  0.33483897  0.20369908  0.43622782    -0.72300
O217        O  0.33344190  0.24775891  0.41447915    -0.72300
O218        O  0.33742738  0.24648670  0.45845254    -0.72400
V219        V  0.28671650  0.24823425  0.43760059     1.35200
V220        V  0.33450737  0.24728981  0.43650227     1.35200
C221        C  0.31317426  0.24627344  0.46648711     0.77000
C222        C  0.30782950  0.24856279  0.40756922     0.77000
C223        C  0.30971776  0.18927863  0.43661742     0.76900
C224        C  0.31145780  0.30631408  0.43753401     0.76900
O225        O  0.99219021  0.43395298  0.04256445    -0.72200
O226        O  0.49678612  0.43785297  0.08669867    -0.72500
O227        O  0.45119336  0.43371054  0.06585412    -0.72300
O228        O  0.03790567  0.43671324  0.06354196    -0.72300
O229        O  0.03739180  0.98641009  0.06235342    -0.72300
O230        O  0.44998139  0.98355430  0.06417709    -0.72300
O231        O  0.99557461  0.98846855  0.08504115    -0.72300
O232        O  0.49103305  0.98149688  0.04135135    -0.72400
V233        V  0.49463972  0.43568228  0.06473895     1.35200
V234        V  0.49343112  0.98349290  0.06315691     1.35200
C235        C  0.49032496  0.95576201  0.03455010     0.77000
C236        C  0.49652868  0.96390235  0.09330686     0.77000
C237        C  0.43571417  0.45826926  0.06529229     0.76900
C238        C  0.05266037  0.46156864  0.06276086     0.76900
O239        O  0.50469765  0.32273554  0.03930727    -0.72200
O240        O  0.00782915  0.31940692  0.08290803    -0.72500
O241        O  0.04980052  0.31966100  0.06010812    -0.72300
O242        O  0.46256265  0.32191131  0.06185430    -0.72300
O243        O  0.46180094  0.27212876  0.06093195    -0.72300
O244        O  0.04894838  0.26985116  0.05960200    -0.72300
O245        O  0.50665143  0.26978985  0.08203737    -0.72300
O246        O  0.00360375  0.27168237  0.03850847    -0.72400
V247        V  0.00615171  0.31951026  0.06097362     1.35200
V248        V  0.00535917  0.27166668  0.06036065     1.35200
C249        C  0.00293795  0.29687029  0.03131288     0.77000
C250        C  0.00762095  0.29412855  0.09006034     0.77000
C251        C  0.06430729  0.29442929  0.05976792     0.76900
C252        C  0.44725475  0.29729421  0.06155046     0.76900
O253        O  0.24402596  0.44250405  0.08808983    -0.72200
O254        O  0.24398047  0.43412117  0.04436045    -0.72500
O255        O  0.28758664  0.43696703  0.06631074    -0.72300
O256        O  0.20053947  0.43952697  0.06608272    -0.72300
O257        O  0.20155956  0.98924926  0.06413979    -0.72300
O258        O  0.28862947  0.98668662  0.06363088    -0.72300
O259        O  0.24425205  0.98395087  0.04214549    -0.72300
O260        O  0.24581070  0.99210558  0.08574557    -0.72400
V261        V  0.24405948  0.43922804  0.06619067     1.35200
V262        V  0.24509004  0.98703693  0.06398153     1.35200
C263        C  0.24512994  0.96884915  0.09441993     0.77000
C264        C  0.24373610  0.95780730  0.03573925     0.77000
C265        C  0.30300523  0.46129056  0.06476534     0.76900
C266        C  0.18607817  0.46468261  0.06491831     0.76900
O267        O  0.25361314  0.26692127  0.08224732    -0.72200
O268        O  0.25814290  0.27317254  0.03871250    -0.72500
O269        O  0.29948244  0.26996648  0.06163184    -0.72300
O270        O  0.21226599  0.27046134  0.05937948    -0.72300
O271        O  0.21213741  0.32012746  0.06165459    -0.72300
O272        O  0.29923054  0.31975753  0.06281587    -0.72300
O273        O  0.25668693  0.32290104  0.04036012    -0.72300
O274        O  0.25468205  0.31656717  0.08422721    -0.72400
V275        V  0.25586259  0.27111312  0.06051880     1.35200
V276        V  0.25569889  0.31889047  0.06225031     1.35200
C277        C  0.25345111  0.29054572  0.09072771     0.77000
C278        C  0.25810865  0.29896412  0.03206242     0.77000
C279        C  0.31425804  0.29485691  0.06255253     0.76900
C280        C  0.19732623  0.29541801  0.06011701     0.76900
O281        O  0.50055707  0.99978134  0.16647092    -0.72200
O282        O  0.99873192  0.00848373  0.21011209    -0.72500
O283        O  0.04317773  0.00322135  0.18893888    -0.72300
O284        O  0.45609763  0.00526116  0.18777439    -0.72300
O285        O  0.45555100  0.45563102  0.18954517    -0.72300
O286        O  0.04258008  0.45398244  0.19233981    -0.72300
O287        O  0.49620886  0.45965983  0.21253666    -0.72300
O288        O  0.00160394  0.44967277  0.16907586    -0.72400
V289        V  0.99960986  0.00286086  0.18839760     1.35200
V290        V  0.99910475  0.45528515  0.19083518     1.35200
C291        C  0.00118884  0.47285572  0.16031912     0.77000
C292        C  0.99673855  0.48534317  0.21880942     0.77000
C293        C  0.05783768  0.97846801  0.19116783     0.76900
C294        C  0.44088034  0.98063321  0.18863958     0.76900
O295        O  0.50833669  0.30570153  0.16558736    -0.72200
O296        O  0.00036377  0.29864878  0.20905444    -0.72500
O297        O  0.04847923  0.30272539  0.18927974    -0.72300
O298        O  0.46128934  0.30133841  0.18542131    -0.72300
O299        O  0.46246358  0.25158427  0.18433787    -0.72300
O300        O  0.04935087  0.25333103  0.18600574    -0.72300
O301        O  0.50396999  0.24859190  0.20704261    -0.72300
O302        O  0.00746492  0.25666566  0.16340676    -0.72400
V303        V  0.00487610  0.30149147  0.18726719     1.35200
V304        V  0.00583310  0.25381116  0.18519163     1.35200
C305        C  0.00865759  0.28260407  0.15694599     0.77000
C306        C  0.00027608  0.27248205  0.21537462     0.77000
C307        C  0.06386933  0.27811532  0.18800769     0.76900
C308        C  0.44699090  0.27621323  0.18441636     0.76900
O309        O  0.25443988  0.46307477  0.21353232    -0.72200
O310        O  0.24594586  0.45480142  0.17018325    -0.72500
O311        O  0.29327658  0.45933633  0.18982957    -0.72300
O312        O  0.20661456  0.45860151  0.19402671    -0.72300
O313        O  0.20542859  0.00786018  0.19066238    -0.72300
O314        O  0.29251124  0.00906707  0.18858635    -0.72300
O315        O  0.24697815  0.00430205  0.16781377    -0.72300
O316        O  0.25104154  0.01263008  0.21136553    -0.72400
V317        V  0.24997821  0.45990460  0.19184198     1.35200
V318        V  0.24896139  0.00753121  0.18964121     1.35200
C319        C  0.25416170  0.98924348  0.21983154     0.77000
C320        C  0.24565254  0.97809389  0.16148730     0.77000
C321        C  0.30780385  0.48433396  0.18878416     0.76900
C322        C  0.19107445  0.48312143  0.19292791     0.76900
O323        O  0.25696647  0.24428284  0.20747215    -0.72200
O324        O  0.25413882  0.25308252  0.16375985    -0.72500
O325        O  0.29896181  0.24784106  0.18492313    -0.72300
O326        O  0.21185395  0.24947784  0.18623064    -0.72300
O327        O  0.21259705  0.29894389  0.18915167    -0.72300
O328        O  0.29972285  0.29746391  0.18711762    -0.72300
O329        O  0.25444464  0.30261940  0.16638845    -0.72300
O330        O  0.25869110  0.29382137  0.20998811    -0.72400
V331        V  0.25542964  0.24962309  0.18566494     1.35200
V332        V  0.25624856  0.29724251  0.18812982     1.35200
C333        C  0.25903946  0.26753521  0.21620027     0.77000
C334        C  0.25426462  0.27942283  0.15758554     0.77000
C335        C  0.31424150  0.27239184  0.18577306     0.76900
C336        C  0.19726354  0.27447503  0.18767291     0.76900
O337        O  0.48917065  0.97875034  0.91588728    -0.72200
O338        O  0.98587424  0.98308530  0.95948465    -0.72500
O339        O  0.03171344  0.98136334  0.93889937    -0.72300
O340        O  0.44413398  0.97925143  0.93728172    -0.72300
O341        O  0.44395208  0.42928930  0.93658367    -0.72300
O342        O  0.03045128  0.43159575  0.93819649    -0.72300
O343        O  0.48519039  0.42920726  0.95979882    -0.72300
O344        O  0.98799967  0.43305493  0.91567321    -0.72400
V345        V  0.98822544  0.98195792  0.93765630     1.35200
V346        V  0.98683463  0.43412845  0.93769847     1.35200
C347        C  0.99094422  0.45790540  0.90824101     0.77000
C348        C  0.98569072  0.45844940  0.96716011     0.77000
C349        C  0.04600502  0.95604967  0.93896639     0.76900
C350        C  0.42913128  0.95447491  0.93700872     0.76900
O351        O  0.50505795  0.32522433  0.91262508    -0.72200
O352        O  0.00052019  0.32508253  0.95647612    -0.72500
O353        O  0.04622944  0.32318569  0.93583632    -0.72300
O354        O  0.45940027  0.32828103  0.93354446    -0.72300
O355        O  0.45830377  0.27855911  0.93467650    -0.72300
O356        O  0.04614841  0.27335868  0.93640856    -0.72300
O357        O  0.50017218  0.27916995  0.95735180    -0.72300
O358        O  0.00396159  0.27158877  0.91376901    -0.72400
V359        V  0.00275004  0.32232483  0.93456180     1.35200
V360        V  0.00249034  0.27452581  0.93553858     1.35200
C361        C  0.00485739  0.29561472  0.90562745     0.77000
C362        C  0.00035205  0.30073883  0.96442455     0.77000
C363        C  0.06105793  0.29826048  0.93670976     0.76900
C364        C  0.44390205  0.30382648  0.93390862     0.76900
O365        O  0.23908727  0.42753228  0.96129651    -0.72200
O366        O  0.23715573  0.42694947  0.91719123    -0.72500
O367        O  0.28173870  0.42742370  0.93864605    -0.72300
O368        O  0.19449379  0.42685862  0.93971758    -0.72300
O369        O  0.19395329  0.97680546  0.93884675    -0.72300
O370        O  0.28122116  0.97746667  0.93951264    -0.72300
O371        O  0.23831041  0.97685608  0.91728294    -0.72300
O372        O  0.23684404  0.97750295  0.96102994    -0.72400
V373        V  0.23811069  0.42811637  0.93924057     1.35200
V374        V  0.23758094  0.97616615  0.93916965     1.35200
C375        C  0.23771136  0.95288931  0.96870439     0.77000
C376        C  0.23779775  0.95201631  0.90966538     0.77000
C377        C  0.29638102  0.45244546  0.93882388     0.76900
C378        C  0.17930036  0.45163814  0.93922295     0.76900
O379        O  0.25597251  0.27698325  0.95811518    -0.72200
O380        O  0.25018997  0.27408012  0.91445302    -0.72500
O381        O  0.29647183  0.27662612  0.93479280    -0.72300
O382        O  0.20971092  0.27425512  0.93764716    -0.72300
O383        O  0.20784564  0.32401930  0.93643680    -0.72300
O384        O  0.29512844  0.32640719  0.93465097    -0.72300
O385        O  0.24994246  0.32391472  0.91365582    -0.72300
O386        O  0.25304464  0.32673226  0.95747567    -0.72400
V387        V  0.25306221  0.27648059  0.93626092     1.35200
V388        V  0.25151408  0.32433567  0.93558249     1.35200
C389        C  0.25501376  0.30231644  0.96528605     0.77000
C390        C  0.24957162  0.29848015  0.90657759     0.77000
C391        C  0.31070111  0.30179870  0.93411360     0.76900
C392        C  0.19390334  0.29861168  0.93721826     0.76900
O393        O  0.42031914  0.00262041  0.58596050    -0.72200
O394        O  0.41304010  0.50195939  0.54217398    -0.72500
O395        O  0.41812984  0.45854805  0.56406755    -0.72300
O396        O  0.41514759  0.04592229  0.56398849    -0.72300
O397        O  0.96435169  0.04728999  0.56086255    -0.72300
O398        O  0.96805000  0.46013691  0.56272372    -0.72300
O399        O  0.96273511  0.00126777  0.54022450    -0.72300
O400        O  0.96983004  0.50577730  0.58367881    -0.72400
V401        V  0.41758734  0.50229054  0.56402889     1.35200
V402        V  0.96525349  0.50367098  0.56195516     1.35200
C403        C  0.94650174  0.50420285  0.59228605     0.77000
C404        C  0.93669868  0.50081229  0.53379420     0.77000
C405        C  0.44350216  0.44437132  0.56316102     0.76900
C406        C  0.43935692  0.06145864  0.56228011     0.76900
O407        O  0.41852668  0.25237623  0.58272444    -0.72200
O408        O  0.41791887  0.25404475  0.53860000    -0.72500
O409        O  0.41665416  0.20978175  0.56029456    -0.72300
O410        O  0.41903537  0.29678909  0.56127521    -0.72300
O411        O  0.96887549  0.29563013  0.56042322    -0.72300
O412        O  0.96616501  0.20804863  0.56008703    -0.72300
O413        O  0.96751368  0.25170506  0.53846720    -0.72300
O414        O  0.96820993  0.25176661  0.58209305    -0.72400
V415        V  0.41898279  0.25327126  0.56067826     1.35200
V416        V  0.96670134  0.25181809  0.56027634     1.35200
C417        C  0.94365897  0.25187500  0.58984005     0.77000
C418        C  0.94273020  0.25277167  0.53093037     0.77000
C419        C  0.44111210  0.19413837  0.56016126     0.76900
C420        C  0.44412350  0.31120909  0.56128643     0.76900
O421        O  0.34221763  0.99189406  0.54320515    -0.72200
O422        O  0.33899019  0.49284211  0.58727406    -0.72500
O423        O  0.33991450  0.44865282  0.56533441    -0.72300
O424        O  0.34115836  0.03626704  0.56494950    -0.72300
O425        O  0.29132914  0.03678332  0.56435482    -0.72300
O426        O  0.29012907  0.44982136  0.56429016    -0.72300
O427        O  0.28924711  0.99352397  0.58609086    -0.72300
O428        O  0.29248016  0.49349491  0.54240642    -0.72400
V429        V  0.33968351  0.49242503  0.56519535     1.35200
V430        V  0.29184612  0.49332302  0.56429697     1.35200
C431        C  0.31783612  0.49285586  0.53531031     0.77000
C432        C  0.31338943  0.49344054  0.59420762     0.77000
C433        C  0.31466734  0.43435398  0.56494653     0.76900
C434        C  0.31627176  0.05141402  0.56472616     0.76900
O435        O  0.33806027  0.24224869  0.54130622    -0.72200
O436        O  0.33533229  0.24353918  0.58548085    -0.72500
O437        O  0.33750720  0.19931936  0.56354538    -0.72300
O438        O  0.33686522  0.28633983  0.56306969    -0.72300
O439        O  0.28705286  0.28655421  0.56316689    -0.72300
O440        O  0.28772787  0.19880437  0.56219509    -0.72300
O441        O  0.28561356  0.24158829  0.58440196    -0.72300
O442        O  0.28830247  0.24367434  0.54082021    -0.72400
V443        V  0.33599322  0.24284041  0.56335950     1.35200
V444        V  0.28815620  0.24266369  0.56264753     1.35200
C445        C  0.31339148  0.24345246  0.53354477     0.77000
C446        C  0.30974345  0.24241358  0.59244780     0.77000
C447        C  0.31291081  0.18417267  0.56275405     0.76900
C448        C  0.31203855  0.30138477  0.56301324     0.76900
C449        C  0.33603623  0.38432942  0.55639484    -0.09600
C450        C  0.31381949  0.40040412  0.56484521     0.06600
C451        C  0.29074421  0.38371403  0.57254890    -0.03400
C452        C  0.29016452  0.35157800  0.57155553    -0.07800
C453        C  0.31242975  0.33545414  0.56308480     0.05700
C454        C  0.33533887  0.35230868  0.55533402    -0.02900
Br455      Br  0.36526363  0.33348489  0.54229565    -0.02600
H456        H  0.35365778  0.39681815  0.55023265     0.09600
H457        H  0.27264459  0.33908163  0.57777396     0.07600
Br458      Br  0.26077410  0.40328826  0.58549210    -0.03000
C459        C  0.33651438  0.10127504  0.55517977    -0.09600
C460        C  0.31596661  0.08538078  0.56467579     0.06600
C461        C  0.29436627  0.10223884  0.57342072    -0.03400
C462        C  0.29330368  0.13430885  0.57237809    -0.07800
C463        C  0.31375646  0.15021047  0.56286366     0.05700
C464        C  0.33545170  0.13339716  0.55414987    -0.02900
Br465      Br  0.36250322  0.15290582  0.53976550    -0.02600
H466        H  0.35291698  0.08863824  0.54824460     0.09600
H467        H  0.27692697  0.14693577  0.57933129     0.07600
Br468      Br  0.26711514  0.08290421  0.58777714    -0.03000
C469        C  0.92278136  0.39376350  0.57101491    -0.09600
C470        C  0.44451098  0.41033799  0.56268855     0.06600
C471        C  0.46656340  0.39394809  0.55395748    -0.03400
C472        C  0.46639377  0.36173097  0.55383813    -0.07800
C473        C  0.44437800  0.34523328  0.56217917     0.05700
C474        C  0.92269420  0.36162382  0.57095076    -0.02900
Br475      Br  0.89330495  0.34170756  0.58396336    -0.02600
H476        H  0.90571842  0.40590959  0.57778127     0.09600
H477        H  0.48308271  0.34952926  0.54687919     0.07600
Br478      Br  0.49601346  0.41402864  0.54102607    -0.03000
C479        C  0.95738734  0.11038601  0.55094558    -0.09600
C480        C  0.43842947  0.09541054  0.56153931     0.06600
C481        C  0.41888661  0.11317333  0.57102138    -0.03400
C482        C  0.41972304  0.14530615  0.57021031    -0.07800
C483        C  0.43988417  0.16025200  0.56011881     0.05700
C484        C  0.95798858  0.14246745  0.55003890    -0.02900
Br485      Br  0.98302457  0.16084949  0.53442375    -0.02600
H486        H  0.97190579  0.09707133  0.54330387     0.09600
H487        H  0.40509429  0.15869752  0.57776901     0.07600
Br488      Br  0.39239482  0.09508403  0.58612352    -0.03000
C489        C  0.36025882  0.32876610  0.93830169    -0.09600
C490        C  0.34471529  0.30252110  0.93309145     0.06600
C491        C  0.36216552  0.27739090  0.92749524    -0.03400
C492        C  0.39426039  0.27855745  0.92777741    -0.07800
C493        C  0.40981984  0.30445788  0.93339749     0.05700
C494        C  0.39236163  0.32988786  0.93861210    -0.02900
Br495      Br  0.41041921  0.36589530  0.94754799    -0.02600
H496        H  0.34738383  0.34826377  0.94266293     0.09600
H497        H  0.40716267  0.25902414  0.92346931     0.07600
Br498      Br  0.34406783  0.24121695  0.91865210    -0.03000
C499        C  0.14376458  0.32102301  0.94507380    -0.09600
C500        C  0.15997917  0.29747756  0.93756649     0.06600
C501        C  0.14336544  0.27367282  0.93032539    -0.03400
C502        C  0.11126150  0.27409804  0.93053421    -0.07800
C503        C  0.09500647  0.29808747  0.93767119     0.05700
C504        C  0.11164615  0.32153381  0.94520873    -0.02900
Br505      Br  0.09223645  0.35412935  0.95650267    -0.02600
H506        H  0.15618293  0.33915218  0.95094240     0.09600
H507        H  0.09890479  0.25599482  0.92462136     0.07600
Br508      Br  0.16284967  0.24120889  0.91888966    -0.03000
C509        C  0.37900482  0.43377794  0.92808916    -0.09600
C510        C  0.39518104  0.95466589  0.93738868     0.06600
C511        C  0.37859385  0.97495181  0.94701741    -0.03400
C512        C  0.34645712  0.97408326  0.94722207    -0.07800
C513        C  0.33031218  0.45279627  0.93814061     0.05700
C514        C  0.34687651  0.43294124  0.92829965    -0.02900
Br515      Br  0.32688030  0.40590528  0.91405097    -0.02600
H516        H  0.39137560  0.41850757  0.92041753     0.09600
H517        H  0.33407053  0.98953064  0.95479976     0.07600
Br518      Br  0.39850947  0.00273031  0.96099360    -0.03000
C519        C  0.12980980  0.97779251  0.94523639    -0.09600
C520        C  0.14521339  0.45179284  0.93931188     0.06600
C521        C  0.12757257  0.42708347  0.93359444    -0.03400
C522        C  0.09545303  0.42879956  0.93386014    -0.07800
C523        C  0.08007508  0.95494439  0.93961542     0.05700
C524        C  0.09774243  0.97948724  0.94552223    -0.02900
Br525      Br  0.08000484  0.01545930  0.95488193    -0.02600
H526        H  0.14286862  0.99683090  0.94988080     0.09600
H527        H  0.08239321  0.40981291  0.92917525     0.07600
Br528      Br  0.14557148  0.39131884  0.92420784    -0.03000
C529        C  0.39817801  0.24852829  0.18895219    -0.09600
C530        C  0.41303521  0.27527014  0.18390842     0.06600
C531        C  0.39502999  0.30046091  0.17900031    -0.03400
C532        C  0.36303218  0.29877274  0.17967587    -0.07800
C533        C  0.34818431  0.27227248  0.18501073     0.05700
C534        C  0.36616507  0.24680472  0.18958302    -0.02900
Br535      Br  0.34899069  0.20969679  0.19777493    -0.02600
H536        H  0.41154348  0.22901323  0.19284489     0.09600
H537        H  0.34964358  0.31832440  0.17584769     0.07600
Br538      Br  0.41219529  0.33737215  0.17057867    -0.03000
C539        C  0.11345027  0.25437436  0.18025856    -0.09600
C540        C  0.09800063  0.27787471  0.18826087     0.06600
C541        C  0.11558237  0.30023082  0.19606957    -0.03400
C542        C  0.14774819  0.29883872  0.19558830    -0.07800
C543        C  0.16315112  0.27518600  0.18765234     0.05700
C544        C  0.14551637  0.25284967  0.17983995    -0.02900
Br545      Br  0.16335971  0.22061453  0.16756602    -0.02600
H546        H  0.10045771  0.23719009  0.17400887     0.09600
H547        H  0.16081739  0.31605735  0.20176759     0.07600
Br548      Br  0.09735908  0.33188283  0.20850813    -0.03000
C549        C  0.39145001  0.00697060  0.18262222    -0.09600
C550        C  0.40683838  0.98120957  0.18864151     0.06600
C551        C  0.38925059  0.45684630  0.19470793    -0.03400
C552        C  0.35725536  0.45848100  0.19438100    -0.07800
C553        C  0.34182582  0.48413942  0.18834378     0.05700
C554        C  0.35933803  0.00867371  0.18239933    -0.02900
Br555      Br  0.34126964  0.04456338  0.17323160    -0.02600
H556        H  0.40447860  0.02588392  0.17788571     0.09600
H557        H  0.34431208  0.43963429  0.19924528     0.07600
Br558      Br  0.40682463  0.42135464  0.20453199    -0.03000
C559        C  0.10674746  0.00715058  0.19406379    -0.09600
C560        C  0.09189935  0.97869931  0.19250006     0.06600
C561        C  0.11008235  0.45169148  0.19228363    -0.03400
C562        C  0.14210670  0.45383775  0.19284668    -0.07800
C563        C  0.15697056  0.48239745  0.19374113     0.05700
C564        C  0.13873228  0.00926889  0.19481009    -0.02900
Br565      Br  0.15528459  0.04972224  0.19777059    -0.02600
H566        H  0.09336578  0.02816050  0.19475302     0.09600
H567        H  0.15549895  0.43282656  0.19222770     0.07600
Br568      Br  0.09346683  0.41099768  0.19068766    -0.03000
C569        C  0.24158233  0.32352480  0.00744776    -0.09600
C570        C  0.25899391  0.30086874  0.01499875     0.06600
C571        C  0.27582338  0.27958496  0.00602909    -0.03400
C572        C  0.27428591  0.28070319  0.98994225    -0.07800
C573        C  0.25650453  0.30300320  0.98236871     0.05700
C574        C  0.24015503  0.32473996  0.99131579    -0.02900
Br575      Br  0.21338169  0.35489462  0.98230185    -0.02600
H576        H  0.22817695  0.33975463  0.01412414     0.09600
H577        H  0.28733252  0.26413008  0.98329551     0.07600
Br578      Br  0.30256581  0.24932588  0.01498726    -0.03000
C579        C  0.26691048  0.31031247  0.11687990    -0.09600
C580        C  0.25258834  0.28775558  0.10782269     0.06600
C581        C  0.23850260  0.26269333  0.11533923    -0.03400
C582        C  0.23959272  0.26036995  0.13144102    -0.07800
C583        C  0.25401743  0.28287929  0.14050338     0.05700
C584        C  0.26784296  0.30809150  0.13298566    -0.02900
Br585      Br  0.29020365  0.33932199  0.14383552    -0.02600
H586        H  0.27813437  0.32954916  0.11137413     0.09600
H587        H  0.22848075  0.24106194  0.13694266     0.07600
Br588      Br  0.21553338  0.23191077  0.10446929    -0.03000
C589        C  0.22813054  0.97946469  0.01043854    -0.09600
C590        C  0.24189113  0.95527119  0.01864148     0.06600
C591        C  0.25322952  0.42947341  0.01030982    -0.03400
C592        C  0.25112412  0.42887282  0.99415181    -0.07800
C593        C  0.23778831  0.95364309  0.98590650     0.05700
C594        C  0.22573099  0.97878019  0.99435862    -0.02900
Br595      Br  0.20411139  0.01244308  0.98496626    -0.02600
H596        H  0.21873119  0.99889691  0.01656872     0.09600
H597        H  0.26069905  0.40958908  0.98800724     0.07600
Br598      Br  0.27380641  0.39564239  0.02005957    -0.03000
C599        C  0.23815125  0.94600587  0.12053374    -0.09600
C600        C  0.24526696  0.97189117  0.11156821     0.06600
C601        C  0.25217545  0.49963947  0.11930652    -0.03400
C602        C  0.25162105  0.50097814  0.13541968    -0.07800
C603        C  0.24465335  0.97513040  0.14436710     0.05700
C604        C  0.23776822  0.94728687  0.13666287    -0.02900
Br605      Br  0.22684737  0.91005244  0.14712797    -0.02600
H606        H  0.23260568  0.92444859  0.11496952     0.09600
H607        H  0.25728025  0.52251947  0.14097385     0.07600
Br608      Br  0.26390872  0.53671499  0.10893379    -0.03000
C609        C  0.36347357  0.32046924  0.05636389    -0.09600
C610        C  0.34825593  0.29527666  0.06286948     0.06600
C611        C  0.36589420  0.27135342  0.06939071    -0.03400
C612        C  0.39799323  0.27251807  0.06876990    -0.07800
C613        C  0.41322848  0.29754016  0.06205753     0.05700
C614        C  0.39552489  0.32186134  0.05593065    -0.02900
Br615      Br  0.41322463  0.35690311  0.04601757    -0.02600
H616        H  0.35033342  0.33905691  0.05130275     0.09600
H617        H  0.41114403  0.25395828  0.07384602     0.07600
Br618      Br  0.34778507  0.23769770  0.08031894    -0.03000
C619        C  0.11419025  0.31774017  0.05223533    -0.09600
C620        C  0.09836109  0.29387955  0.05959828     0.06600
C621        C  0.11548885  0.27042755  0.06687534    -0.03400
C622        C  0.14759238  0.27123060  0.06663686    -0.07800
C623        C  0.16337044  0.29541527  0.05956365     0.05700
C624        C  0.14632665  0.31891624  0.05228982    -0.02900
Br625      Br  0.16542684  0.35234920  0.04158203    -0.02600
H626        H  0.10147712  0.33538681  0.04621010     0.09600
H627        H  0.16033344  0.25321891  0.07242537     0.07600
Br628      Br  0.09673736  0.23777814  0.07827836    -0.03000
C629        C  0.98858417  0.27520437  0.98930701    -0.09600
C630        C  0.99964774  0.30123410  0.98155737     0.06600
C631        C  0.51193120  0.32861614  0.99064870    -0.03400
C632        C  0.51297939  0.32591852  0.00671046    -0.07800
C633        C  0.00098950  0.29779869  0.01422516     0.05700
C634        C  0.98887174  0.27335588  0.00539285    -0.02900
Br635      Br  0.97106119  0.23726004  0.01435024    -0.02600
H636        H  0.97939786  0.25607718  0.98280188     0.09600
H637        H  0.52343173  0.34419111  0.01334194     0.07600
Br638      Br  0.52925992  0.36506419  0.98197577    -0.03000
C639        C  0.50367340  0.31384493  0.13313021    -0.09600
C640        C  0.00935329  0.28539743  0.13981885     0.06600
C641        C  0.01417685  0.25984447  0.12997956    -0.03400
C642        C  0.01381998  0.26366803  0.11401290    -0.07800
C643        C  0.00834783  0.29242463  0.10720979     0.05700
C644        C  0.50272369  0.31761233  0.11708737    -0.02900
Br645      Br  0.49261155  0.35792337  0.10966386    -0.02600
H646        H  0.49953629  0.33369836  0.14037256     0.09600
H647        H  0.01781058  0.24367616  0.10684617     0.07600
Br648      Br  0.02165570  0.21871889  0.13711864    -0.03000
C649        C  0.38641627  0.98172832  0.05738990    -0.09600
C650        C  0.40179600  0.45798185  0.06530622     0.06600
C651        C  0.38442244  0.43495883  0.07264586    -0.03400
C652        C  0.35229646  0.43633683  0.07221937    -0.07800
C653        C  0.33694799  0.46024269  0.06448563     0.05700
C654        C  0.35441806  0.98283169  0.05673825    -0.02900
Br655      Br  0.33648646  0.01419146  0.04402556    -0.02600
H656        H  0.39931003  0.99897298  0.05135679     0.09600
H657        H  0.33935297  0.41899033  0.07814607     0.07600
Br658      Br  0.40276334  0.40193359  0.08410231    -0.03000
C659        C  0.10199965  0.99047572  0.06335797    -0.09600
C660        C  0.08683636  0.46194250  0.06269329     0.06600
C661        C  0.10479502  0.43480203  0.06242506    -0.03400
C662        C  0.13675314  0.43658286  0.06320543    -0.07800
C663        C  0.15195788  0.46492894  0.06416650     0.05700
C664        C  0.13406300  0.99229905  0.06406110    -0.02900
Br665      Br  0.15112432  0.03290638  0.06512740    -0.02600
H666        H  0.08885262  0.01162771  0.06352703     0.09600
H667        H  0.14979635  0.41536621  0.06300582     0.07600
Br668      Br  0.08799185  0.39421785  0.06091005    -0.03000
C669        C  0.49173849  0.98181570  0.00906896    -0.09600
C670        C  0.48762566  0.95448023  0.01736609     0.06600
C671        C  0.98121851  0.43046319  0.00870221    -0.03400
C672        C  0.98014360  0.43152378  0.99252981    -0.07800
C673        C  0.98568922  0.45889634  0.98439976     0.05700
C674        C  0.49012905  0.98263623  0.99298909    -0.02900
Br675      Br  0.49524992  0.02249764  0.98386707    -0.02600
H676        H  0.49640592  0.00305503  0.01513659     0.09600
H677        H  0.97460522  0.41072475  0.98627772     0.07600
Br678      Br  0.97103533  0.39206493  0.01816766    -0.03000
C679        C  0.48911314  0.99475265  0.13439639    -0.09600
C680        C  0.00054722  0.46981328  0.14319210     0.06600
C681        C  0.01089952  0.44334622  0.13520290    -0.03400
C682        C  0.00943002  0.44223828  0.11904704    -0.07800
C683        C  0.49756982  0.96659180  0.11043221     0.05700
C684        C  0.48706520  0.99309389  0.11833157    -0.02900
Br685      Br  0.46770153  0.02729622  0.10823062    -0.02600
H686        H  0.48070129  0.01524947  0.14011722     0.09600
H687        H  0.01823634  0.42213506  0.11315991     0.07600
Br688      Br  0.02825253  0.40825561  0.14542139    -0.03000
C689        C  0.29128119  0.26098139  0.49194023    -0.09600
C690        C  0.31415480  0.24532113  0.48362889     0.06600
C691        C  0.33682421  0.22890297  0.49191019    -0.03400
C692        C  0.33631793  0.22864851  0.50809846    -0.07800
C693        C  0.31353794  0.24457103  0.51639527     0.05700
C694        C  0.29088994  0.26096191  0.50806685    -0.02900
Br695      Br  0.25973307  0.28545506  0.51790111    -0.02600
H696        H  0.27380600  0.27386511  0.48584328     0.09600
H697        H  0.35366226  0.21565776  0.51422706     0.07600
Br698      Br  0.36773838  0.20461284  0.48182588    -0.03000
C699        C  0.28812303  0.35580705  0.44587018    -0.09600
C700        C  0.31162286  0.34035328  0.43790340     0.06600
C701        C  0.33439563  0.35782632  0.43044903    -0.03400
C702        C  0.33329484  0.38991612  0.43108357    -0.07800
C703        C  0.30978830  0.40540494  0.43902946     0.05700
C704        C  0.28710711  0.38792036  0.44659800    -0.02900
Br705      Br  0.25516354  0.40603863  0.45890566    -0.02600
H706        H  0.27064538  0.34279505  0.45182851     0.09600
H707        H  0.35078720  0.40286426  0.42509839     0.07600
Br708      Br  0.36643252  0.33964314  0.41832152    -0.03000
C709        C  0.28574455  0.10580709  0.43191375    -0.09600
C710        C  0.31054894  0.09044530  0.43883774     0.06600
C711        C  0.33480229  0.10789350  0.44508439    -0.03400
C712        C  0.33422019  0.13991782  0.44393678    -0.07800
C713        C  0.30946879  0.15530258  0.43696758     0.05700
C714        C  0.28493576  0.13786773  0.43095857    -0.02900
Br715      Br  0.25032405  0.15602399  0.42066225    -0.02600
H716        H  0.26698833  0.09277442  0.42700468     0.09600
H717        H  0.35291156  0.15293296  0.44892805     0.07600
Br718      Br  0.36788865  0.08979967  0.45658508    -0.03000
C719        C  0.33920974  0.48075818  0.49298087    -0.09600
C720        C  0.31642744  0.49832002  0.48556991     0.06600
C721        C  0.29500925  0.01460940  0.49469675    -0.03400
C722        C  0.29612859  0.01242923  0.51075631    -0.07800
C723        C  0.31841499  0.49439785  0.51820397     0.05700
C724        C  0.34012275  0.47838377  0.50911583    -0.02900
Br725      Br  0.36932147  0.45041288  0.51794364    -0.02600
H726        H  0.35563157  0.46783289  0.48619046     0.09600
H727        H  0.27956775  0.02525469  0.51750996     0.07600
Br728      Br  0.26454210  0.04161486  0.48608852    -0.03000
C729        C  0.96894383  0.23703495  0.50662066    -0.09600
C730        C  0.94366302  0.25142077  0.51377295     0.06600
C731        C  0.42072835  0.26420213  0.50444911    -0.03400
C732        C  0.42292476  0.26202428  0.48841348    -0.07800
C733        C  0.94780756  0.24731183  0.48116571     0.05700
C734        C  0.97121526  0.23487279  0.49055307    -0.02900
Br735      Br  0.00606775  0.21323057  0.48232522    -0.02600
H736        H  0.98696879  0.22696515  0.51357240     0.09600
H737        H  0.40505530  0.27231325  0.48143115     0.07600
Br738      Br  0.38668981  0.28695698  0.51233911    -0.03000
C739        C  0.96945499  0.38814378  0.42847139    -0.09600
C740        C  0.44673949  0.40271330  0.43703392     0.06600
C741        C  0.42537401  0.38452058  0.44501838    -0.03400
C742        C  0.42735284  0.35248305  0.44415580    -0.07800
C743        C  0.45029822  0.33785069  0.43540095     0.05700
C744        C  0.97128410  0.35606443  0.42746023    -0.02900
Br745      Br  0.00213244  0.33875201  0.41422506    -0.02600
H746        H  0.98593789  0.40186701  0.42220384     0.09600
H747        H  0.41089922  0.33886423  0.45050484     0.07600
Br748      Br  0.39429577  0.40194595  0.45808857    -0.03000
C749        C  0.42410633  0.10337587  0.42974541    -0.09600
C750        C  0.44611900  0.08784857  0.43865373     0.06600
C751        C  0.96870732  0.10525068  0.44654526    -0.03400
C752        C  0.96922225  0.13726302  0.44496038    -0.07800
C753        C  0.44702432  0.15275691  0.43608501     0.05700
C754        C  0.42418696  0.13541945  0.42850135    -0.02900
Br755      Br  0.39341232  0.15367670  0.41557122    -0.02600
H756        H  0.40682808  0.09047201  0.42353165     0.09600
H757        H  0.98649532  0.15026800  0.45112608     0.07600
Br758      Br  0.99811831  0.08723287  0.46035648    -0.03000
C759        C  0.41924488  0.51762852  0.49177566    -0.09600
C760        C  0.93549411  0.49372398  0.48453563     0.06600
C761        C  0.95037174  0.97132285  0.49358462    -0.03400
C762        C  0.95008630  0.97388642  0.50962245    -0.07800
C763        C  0.93458217  0.49821920  0.51691805     0.05700
C764        C  0.41870909  0.52003940  0.50788890    -0.02900
Br765      Br  0.39810560  0.55457933  0.51703696    -0.02600
H766        H  0.40783598  0.53504031  0.48492030     0.09600
H767        H  0.96192579  0.95672390  0.51645362     0.07600
Br768      Br  0.97009949  0.93611494  0.48457169    -0.03000
C769        C  0.25462902  0.23803965  0.25764608    -0.09600
C770        C  0.27366043  0.25894267  0.26539503     0.06600
C771        C  0.28725141  0.28290751  0.25693074    -0.03400
C772        C  0.28161768  0.28560695  0.24107001    -0.07800
C773        C  0.26309986  0.26429201  0.23318664     0.05700
C774        C  0.24964565  0.24020183  0.24170440    -0.02900
Br775      Br  0.22321346  0.21022518  0.23244334    -0.02600
H776        H  0.24384228  0.21966430  0.26401079     0.09600
H777        H  0.29221145  0.30424404  0.23481977     0.07600
Br778      Br  0.31250550  0.31343787  0.26660406    -0.03000
C779        C  0.32367546  0.23772847  0.36436943    -0.09600
C780        C  0.29687104  0.25029017  0.35780731     0.06600
C781        C  0.27460345  0.26312694  0.36780363    -0.03400
C782        C  0.27895267  0.26229656  0.38377847    -0.07800
C783        C  0.30539941  0.24926073  0.39039467     0.05700
C784        C  0.32806044  0.23699287  0.38042086    -0.02900
Br785      Br  0.36453675  0.21709876  0.38785100    -0.02600
H786        H  0.34114252  0.22779712  0.35697516     0.09600
H787        H  0.26147904  0.27238190  0.39111714     0.07600
Br788      Br  0.23845031  0.28400131  0.36056294    -0.03000
C789        C  0.30893166  0.39461448  0.31509593    -0.09600
C790        C  0.28042595  0.40991196  0.31502759     0.06600
C791        C  0.25340026  0.39204025  0.31446842    -0.03400
C792        C  0.25552291  0.35993148  0.31400814    -0.07800
C793        C  0.28409229  0.34471677  0.31393871     0.05700
C794        C  0.31106910  0.36262283  0.31453048    -0.02900
Br795      Br  0.35187197  0.34565248  0.31468432    -0.02600
H796        H  0.33004060  0.40763202  0.31552145     0.09600
H797        H  0.23448307  0.34679570  0.31349734     0.07600
Br798      Br  0.21275712  0.40928623  0.31381538    -0.03000
C799        C  0.26124554  0.11066090  0.30496436    -0.09600
C800        C  0.28566083  0.09495410  0.31202026     0.06600
C801        C  0.31104509  0.11192362  0.31747295    -0.03400
C802        C  0.31120999  0.14394902  0.31610685    -0.07800
C803        C  0.28637135  0.15970056  0.30946783     0.05700
C804        C  0.26152352  0.14266584  0.30351761    -0.02900
Br805      Br  0.22823986  0.16155102  0.29248061    -0.02600
H806        H  0.24201768  0.09791446  0.30031331     0.09600
H807        H  0.33041272  0.15670036  0.32077961     0.07600
Br808      Br  0.34510341  0.09316740  0.32797388    -0.03000
C809        C  0.28005310  0.47287926  0.24389652    -0.09600
C810        C  0.25868432  0.99226318  0.23662503     0.06600
C811        C  0.24256592  0.01411473  0.24554515    -0.03400
C812        C  0.24821894  0.01632849  0.26137549    -0.07800
C813        C  0.27010528  0.99738930  0.26853998     0.05700
C814        C  0.28596542  0.47533788  0.25967484    -0.02900
Br815      Br  0.31427129  0.44651661  0.26861691    -0.02600
H816        H  0.29242330  0.45579066  0.23721939     0.09600
H817        H  0.23548136  0.03301635  0.26813381     0.07600
Br818      Br  0.21129500  0.04015651  0.23697582    -0.03000
C819        C  0.27709019  0.98536504  0.38593258    -0.09600
C820        C  0.30196813  0.50049809  0.39283937     0.06600
C821        C  0.32212595  0.51739834  0.38338378    -0.03400
C822        C  0.31752240  0.51813871  0.36739889    -0.07800
C823        C  0.29282896  0.00267501  0.36049942     0.05700
C824        C  0.27234964  0.98628587  0.37000652    -0.02900
Br825      Br  0.23831408  0.96324938  0.36200871    -0.02600
H826        H  0.26130867  0.97238558  0.39297446     0.09600
H827        H  0.33295519  0.53147128  0.36033685     0.07600
Br828      Br  0.35470868  0.54204281  0.39164679    -0.03000
C829        C  0.00698136  0.24773704  0.25719759    -0.09600
C830        C  0.98117804  0.26205730  0.26385912     0.06600
C831        C  0.46178959  0.27959881  0.25444425    -0.03400
C832        C  0.46890500  0.28328897  0.23879395    -0.07800
C833        C  0.99466876  0.26924106  0.23210553     0.05700
C834        C  0.01357419  0.25085009  0.24149028    -0.02900
Br835      Br  0.04953488  0.23073361  0.23356592    -0.02600
H836        H  0.02212403  0.23385052  0.26425186     0.09600
H837        H  0.45395002  0.29720179  0.23164586     0.07600
Br838      Br  0.42620018  0.30082188  0.26211728    -0.03000
C839        C  0.97323709  0.22661629  0.38068960    -0.09600
C840        C  0.95185408  0.24555852  0.38826043     0.06600
C841        C  0.43318351  0.26502192  0.37948063    -0.03400
C842        C  0.43577280  0.26508461  0.36339637    -0.07800
C843        C  0.95744558  0.24678047  0.35576793     0.05700
C844        C  0.97611072  0.22701000  0.36463449    -0.02900
Br845      Br  0.00492075  0.19895509  0.35543218    -0.02600
H846        H  0.98774011  0.21129491  0.38729985     0.09600
H847        H  0.42172850  0.28080725  0.35677276     0.07600
Br848      Br  0.40596535  0.29453678  0.38862534    -0.03000
C849        C  0.44327827  0.36210371  0.31562062    -0.09600
C850        C  0.47107796  0.34601665  0.31384060     0.06600
C851        C  0.99854407  0.36343208  0.31390051    -0.03400
C852        C  0.99760447  0.39551405  0.31450759    -0.07800
C853        C  0.46997157  0.41114300  0.31521558     0.05700
C854        C  0.44245532  0.39417119  0.31651903    -0.02900
Br855      Br  0.40293534  0.41267389  0.32017425    -0.02600
H856        H  0.42193408  0.34966254  0.31644674     0.09600
H857        H  0.01904730  0.40795432  0.31419306     0.07600
Br858      Br  0.03875726  0.34515310  0.31307052    -0.03000
C859        C  0.44428838  0.11087638  0.30477235    -0.09600
C860        C  0.46976863  0.09623290  0.31156953     0.06600
C861        C  0.99363690  0.11505576  0.31774863    -0.03400
C862        C  0.99228014  0.14694710  0.31616912    -0.07800
C863        C  0.46698079  0.16115077  0.30905997     0.05700
C864        C  0.44250250  0.14291856  0.30361511    -0.02900
Br865      Br  0.40620065  0.15973901  0.29425694    -0.02600
H866        H  0.42553193  0.09731666  0.30023746     0.09600
H867        H  0.01076329  0.16047893  0.32100587     0.07600
Br868      Br  0.02746590  0.09882332  0.32942631    -0.03000
C869        C  0.00427312  0.01559418  0.25986954    -0.09600
C870        C  0.98400871  0.49620824  0.26773318     0.06600
C871        C  0.46929794  0.47251315  0.25938250    -0.03400
C872        C  0.47430102  0.46928747  0.24355746    -0.07800
C873        C  0.99379217  0.48893826  0.23572263     0.05700
C874        C  0.00915502  0.01226648  0.24398991    -0.02900
Br875      Br  0.03838384  0.03905888  0.23444646    -0.02600
H876        H  0.01619340  0.03355715  0.26608572     0.09600
H877        H  0.46265632  0.45106858  0.23739755     0.07600
Br878      Br  0.44377917  0.44270631  0.26935030    -0.03000
C879        C  0.48511032  0.00717512  0.36877752    -0.09600
C880        C  0.95874023  0.50455948  0.35959308     0.06600
C881        C  0.93020417  0.49913193  0.36684950    -0.03400
C882        C  0.92862871  0.49676674  0.38292026    -0.07800
C883        C  0.95491404  0.49960861  0.39224046     0.05700
C884        C  0.48360577  0.00489725  0.38481510    -0.02900
Br885      Br  0.52182053  0.00973160  0.39562190    -0.02600
H886        H  0.50728296  0.01128489  0.36355142     0.09600
H887        H  0.90652166  0.49232700  0.38814014     0.07600
Br888      Br  0.89247618  0.49346474  0.35576880    -0.03000
C889        C  0.26390916  0.31355103  0.86393165    -0.09600
C890        C  0.24683740  0.28985966  0.85707438     0.06600
C891        C  0.22948541  0.27028607  0.86662787    -0.03400
C892        C  0.23048812  0.27380409  0.88263724    -0.07800
C893        C  0.24821068  0.29689682  0.88953303     0.05700
C894        C  0.26485027  0.31709059  0.87999278    -0.02900
Br895      Br  0.29150756  0.34800166  0.88820576    -0.02600
H896        H  0.27752672  0.32863912  0.85681396     0.09600
H897        H  0.21715547  0.25844750  0.88975491     0.07600
Br898      Br  0.20270165  0.23924151  0.85852836    -0.03000
C899        C  0.23011472  0.43155338  0.86666007    -0.09600
C900        C  0.24112014  0.95860915  0.85962596     0.06600
C901        C  0.25152400  0.98260428  0.86934855    -0.03400
C902        C  0.25015131  0.97954214  0.88537520    -0.07800
C903        C  0.23879027  0.95289524  0.89242424     0.05700
C904        C  0.22874429  0.42853451  0.88280802    -0.02900
Br905      Br  0.21112110  0.39150237  0.89080298    -0.02600
H906        H  0.22182584  0.41287037  0.85954449     0.09600
H907        H  0.25844369  0.99833146  0.89242329     0.07600
Br908      Br  0.26930435  0.02004178  0.86185572    -0.03000
C909        C  0.36004143  0.25407931  0.82098524    -0.09600
C910        C  0.34397056  0.27523283  0.81178704     0.06600
C911        C  0.36077654  0.29554005  0.80238898    -0.03400
C912        C  0.39280544  0.29499696  0.80270048    -0.07800
C913        C  0.40889124  0.27408504  0.81196638     0.05700
C914        C  0.39219901  0.25333963  0.82116000    -0.02900
Br915      Br  0.41174969  0.22480033  0.83484914    -0.02600
H916        H  0.34752950  0.23831872  0.82827320     0.09600
H917        H  0.40527727  0.31062617  0.79531395     0.07600
Br918      Br  0.34177333  0.32290508  0.78790149    -0.03000
C919        C  0.14304406  0.30321551  0.80982501    -0.09600
C920        C  0.15895646  0.27512884  0.80865046     0.06600
C921        C  0.14178345  0.24795403  0.80648504    -0.03400
C922        C  0.10971855  0.24927884  0.80611858    -0.07800
C923        C  0.09372219  0.27722308  0.80766534     0.05700
C924        C  0.11092235  0.30459020  0.80931257    -0.02900
Br925      Br  0.09274464  0.34472055  0.81139847    -0.02600
H926        H  0.15564895  0.32441167  0.81136370     0.09600
H927        H  0.09719060  0.22804941  0.80455156     0.07600
Br928      Br  0.16002003  0.20814362  0.80334342    -0.03000
C929        C  0.01124494  0.31298197  0.86239046    -0.09600
C930        C  0.00407086  0.28422076  0.85587957     0.06600
C931        C  0.49751504  0.26297704  0.86616523    -0.03400
C932        C  0.49800460  0.26787050  0.88207645    -0.07800
C933        C  0.00500259  0.29294291  0.88845619     0.05700
C934        C  0.01178364  0.31756094  0.87841521    -0.02900
Br935      Br  0.02277314  0.35782025  0.88556893    -0.02600
H936        H  0.01672180  0.33214239  0.85496402     0.09600
H937        H  0.49216498  0.24879960  0.88949032     0.07600
Br938      Br  0.48541315  0.22264872  0.85951432    -0.03000
C939        C  0.35139469  0.98919321  0.82111156    -0.09600
C940        C  0.33551873  0.46501265  0.81399240     0.06600
C941        C  0.35263573  0.44099932  0.80707522    -0.03400
C942        C  0.38475784  0.44154526  0.80746537    -0.07800
C943        C  0.40065609  0.96588290  0.81446188     0.05700
C944        C  0.38353532  0.98977284  0.82148995    -0.02900
Br945      Br  0.40220909  0.02316303  0.83249964    -0.02600
H946        H  0.33874173  0.00765895  0.82660572     0.09600
H947        H  0.39736423  0.42320621  0.80184221     0.07600
Br948      Br  0.33400598  0.40786683  0.79587450    -0.03000
C949        C  0.13410876  0.98607762  0.82165195    -0.09600
C950        C  0.15053501  0.46829196  0.81095787     0.06600
C951        C  0.13420207  0.45069388  0.80003706    -0.03400
C952        C  0.10202818  0.45060753  0.80021748    -0.07800
C953        C  0.08561127  0.96826368  0.81100304     0.05700
C954        C  0.10199885  0.98596564  0.82186001    -0.02900
Br955      Br  0.08189071  0.00837842  0.83806670    -0.02600
H956        H  0.14636441  0.99936091  0.83023984     0.09600
H957        H  0.08974673  0.43717918  0.79169886     0.07600
Br958      Br  0.15459349  0.42801982  0.78401982    -0.03000
C959        C  0.00961703  0.98239171  0.86705590    -0.09600
C960        C  0.99630253  0.45866405  0.85834492     0.06600
C961        C  0.48165710  0.43144792  0.86624092    -0.03400
C962        C  0.48074328  0.43085931  0.88240762    -0.07800
C963        C  0.99410233  0.45803462  0.89112023     0.05700
C964        C  0.00901327  0.98212603  0.88318553    -0.02900
Br965      Br  0.03060758  0.01461117  0.89351825    -0.02600
H966        H  0.02080720  0.00128921  0.86126883     0.09600
H967        H  0.46879194  0.41229424  0.88808597     0.07600
Br968      Br  0.46086347  0.39905608  0.85548273    -0.03000
C969        C  0.28205261  0.23276645  0.74387615    -0.09600
C970        C  0.26424825  0.24951833  0.73333557     0.06600
C971        C  0.24266226  0.27104131  0.73907204    -0.03400
C972        C  0.24000531  0.27599811  0.75499138    -0.07800
C973        C  0.25784235  0.25920266  0.76550272     0.05700
C974        C  0.27874552  0.23706765  0.75978157    -0.02900
Br975      Br  0.30489816  0.21335516  0.77305554    -0.02600
H976        H  0.29877769  0.21622421  0.73970601     0.09600
H977        H  0.22378412  0.29300883  0.75919000     0.07600
Br978      Br  0.21747918  0.29574810  0.72579157    -0.03000
C979        C  0.32097879  0.25724014  0.63557515    -0.09600
C980        C  0.29739870  0.23920889  0.64188725     0.06600
C981        C  0.27902554  0.22161932  0.63182670    -0.03400
C982        C  0.28408849  0.22264480  0.61592181    -0.07800
C983        C  0.30717809  0.24111311  0.60953246     0.05700
C984        C  0.32563482  0.25871679  0.61956459    -0.02900
Br985      Br  0.35508970  0.28761047  0.61203141    -0.02600
H986        H  0.33499538  0.27130695  0.64308172     0.09600
H987        H  0.26971057  0.20886137  0.60845008     0.07600
Br988      Br  0.24733145  0.19476682  0.63909929    -0.03000
C989        C  0.30689815  0.38399635  0.69235052    -0.09600
C990        C  0.28029321  0.39961303  0.68751186     0.06600
C991        C  0.25479088  0.38222511  0.68252714    -0.03400
C992        C  0.25645736  0.35023024  0.68250262    -0.07800
C993        C  0.28300136  0.33458692  0.68735687     0.05700
C994        C  0.30851631  0.35194948  0.69239086    -0.02900
Br995      Br  0.34615284  0.33424142  0.69992257    -0.02600
H996        H  0.32667343  0.39677639  0.69633496     0.09600
H997        H  0.23659863  0.33749478  0.67858780     0.07600
Br998      Br  0.21688167  0.39980834  0.67530389    -0.03000
C999        C  0.25226353  0.10030570  0.69008984    -0.09600
C1000       C  0.28048655  0.08453830  0.68983737     0.06600
C1001       C  0.30784664  0.10178337  0.68895242    -0.03400
C1002       C  0.30642110  0.13381310  0.68858341    -0.07800
C1003       C  0.27824970  0.14964856  0.68893184     0.05700
C1004       C  0.25082509  0.13239394  0.68965332    -0.02900
Br1005     Br  0.21049635  0.15042954  0.69043359    -0.02600
H1006       H  0.23096080  0.08758619  0.69072247     0.09600
H1007       H  0.32776188  0.14642366  0.68784143     0.07600
Br1008     Br  0.34809253  0.08373178  0.68748033    -0.03000
C1009       C  0.26855389  0.45638841  0.75877438    -0.09600
C1010       C  0.24871932  0.97650278  0.76662979     0.06600
C1011       C  0.23363682  0.99979868  0.75811732    -0.03400
C1012       C  0.23941118  0.00312139  0.74224640    -0.07800
C1013       C  0.26045695  0.98384262  0.73459995     0.05700
C1014       C  0.27453103  0.45991423  0.74301809    -0.02900
Br1015     Br  0.30097958  0.43025226  0.73334320    -0.02600
H1016       H  0.28002626  0.43809201  0.76497920     0.09600
H1017       H  0.22778929  0.02115228  0.73591462     0.07600
Br1018     Br  0.20384144  0.02668967  0.76736779    -0.03000
C1019       C  0.32586098  0.48124564  0.63755037    -0.09600
C1020       C  0.29985212  0.49630997  0.64365649     0.06600
C1021       C  0.28023587  0.01209842  0.63339502    -0.03400
C1022       C  0.28562880  0.01104817  0.61753509    -0.07800
C1023       C  0.31076936  0.49500680  0.61132093     0.05700
C1024       C  0.33145940  0.48047789  0.62156172    -0.02900
Br1025     Br  0.36622626  0.45728857  0.61440268    -0.02600
H1026       H  0.34139891  0.46917889  0.64519298     0.09600
H1027       H  0.26990941  0.02306703  0.60996935     0.07600
Br1028     Br  0.24643324  0.03701620  0.64028887    -0.03000
C1029       C  0.47072421  0.28540413  0.75607742    -0.09600
C1030       C  0.99200830  0.26460779  0.76338723     0.06600
C1031       C  0.00675002  0.24140798  0.75467897    -0.03400
C1032       C  0.00027307  0.23814441  0.73892512    -0.07800
C1033       C  0.97897820  0.25744668  0.73154430     0.05700
C1034       C  0.46400657  0.28181761  0.74038199    -0.02900
Br1035     Br  0.43726030  0.31149744  0.73097400    -0.02600
H1036       H  0.45952720  0.30371229  0.76245755     0.09600
H1037       H  0.01198427  0.22039250  0.73238397     0.07600
Br1038     Br  0.03745565  0.21490729  0.76339123    -0.03000
C1039       C  0.96967949  0.26787423  0.61395746    -0.09600
C1040       C  0.94526670  0.25217903  0.60695273     0.06600
C1041       C  0.42417493  0.23682332  0.61660540    -0.03400
C1042       C  0.42765121  0.23745900  0.63271418    -0.07800
C1043       C  0.95273260  0.25214809  0.63948917     0.05700
C1044       C  0.97358160  0.26803449  0.62994220    -0.02900
Br1045     Br  0.00720048  0.29176123  0.63788675    -0.02600
H1046       H  0.98594626  0.28029250  0.60691328     0.09600
H1047       H  0.41144610  0.22503606  0.63978151     0.07600
Br1048     Br  0.39216605  0.21167125  0.60820566    -0.03000
C1049       C  0.99048642  0.39254889  0.69083078    -0.09600
C1050       C  0.96464916  0.40857345  0.68541093     0.06600
C1051       C  0.43870765  0.39243635  0.68039402    -0.03400
C1052       C  0.43952932  0.36031166  0.68043168    -0.07800
C1053       C  0.46539626  0.34422195  0.68580879     0.05700
C1054       C  0.99132584  0.36048136  0.69099467    -0.02900
Br1055     Br  0.02671942  0.34151099  0.70021047    -0.02600
H1056       H  0.00993719  0.40505557  0.69539524     0.09600
H1057       H  0.41991544  0.34783078  0.67602737     0.07600
Br1058     Br  0.40271706  0.41171188  0.67191761    -0.03000
C1059       C  0.43885475  0.10933608  0.68598922    -0.09600
C1060       C  0.96647640  0.09351357  0.68962350     0.06600
C1061       C  0.99311505  0.11125009  0.69219883    -0.03400
C1062       C  0.99170322  0.14329624  0.69103643    -0.07800
C1063       C  0.46393636  0.15916072  0.68740116     0.05700
C1064       C  0.43737271  0.14137096  0.68476444    -0.02900
Br1065     Br  0.39881876  0.15880423  0.67838904    -0.02600
H1066       H  0.41831923  0.09616299  0.68366907     0.09600
H1067       H  0.01234455  0.15641633  0.69323524     0.07600
Br1068     Br  0.03201625  0.09370452  0.69788732    -0.03000
C1069       C  0.45973862  0.46927591  0.74180795    -0.09600
C1070       C  0.47865874  0.99061180  0.73427747     0.06600
C1071       C  0.00173577  0.00486735  0.74253183    -0.03400
C1072       C  0.00487537  0.99914128  0.75834183    -0.07800
C1073       C  0.98632142  0.47752757  0.76583962     0.05700
C1074       C  0.46379797  0.46232036  0.75745787    -0.02900
Br1075     Br  0.43684708  0.43258892  0.76647841    -0.02600
H1076       H  0.44193809  0.45753766  0.73540077     0.09600
H1077       H  0.02215135  0.01149736  0.76481787     0.07600
Br1078     Br  0.02895382  0.03427426  0.73348373    -0.03000
C1079       C  0.42516629  0.01532811  0.61857918    -0.09600
C1080       C  0.94965766  0.50434158  0.60934846     0.06600
C1081       C  0.97632139  0.49323446  0.61679069    -0.03400
C1082       C  0.97841698  0.49403687  0.63285166    -0.07800
C1083       C  0.45402266  0.00526185  0.64219713     0.05700
C1084       C  0.42710407  0.01589126  0.63473264    -0.02900
Br1085     Br  0.39250503  0.03252483  0.64567123    -0.02600
H1086       H  0.40451085  0.02390369  0.61310688     0.09600
H1087       H  0.99901520  0.48506052  0.63821430     0.07600
Br1088     Br  0.01005414  0.47454194  0.60596285    -0.03000
O1089       O  0.99651242  0.99827365  0.70822455    -0.72200
O1090       O  0.98469718  0.50248783  0.66490861    -0.72500
O1091       O  0.99107386  0.54416881  0.68748094    -0.72300
O1092       O  0.98994102  0.95703891  0.68553772    -0.72300
O1093       O  0.44013604  0.95835772  0.68822415    -0.72300
O1094       O  0.44205766  0.54523185  0.69190274    -0.72300
O1095       O  0.43527144  0.00540101  0.66841446    -0.72300
O1096       O  0.44719125  0.49737325  0.71182593    -0.72400
V1097       V  0.98960967  0.50056831  0.68661792     1.35200
V1098       V  0.44211227  0.50170578  0.69007545     1.35200
C1099       C  0.47395645  0.49631619  0.71754640     0.77000
C1100       C  0.45793650  0.50473398  0.65930283     0.77000
C1101       C  0.96672664  0.55935372  0.68984009     0.76900
C1102       C  0.96488685  0.94250648  0.68613349     0.76900
O1103       O  0.44600848  0.75497673  0.70935958    -0.72200
O1104       O  0.43390886  0.75027209  0.66579216    -0.72500
O1105       O  0.43960765  0.70870708  0.68870589    -0.72300
O1106       O  0.44010121  0.79582818  0.68657097    -0.72300
O1107       O  0.99033555  0.79427938  0.68404289    -0.72300
O1108       O  0.98897257  0.70706493  0.68401722    -0.72300
O1109       O  0.98362059  0.75096434  0.66232406    -0.72300
O1110       O  0.99596614  0.75080440  0.70563881    -0.72400
V1111       V  0.44081071  0.75229731  0.68754095     1.35200
V1112       V  0.98874608  0.75072032  0.68404494     1.35200
C1113       C  0.97358539  0.75391380  0.71476669     0.77000
C1114       C  0.95700578  0.75081536  0.65650666     0.77000
C1115       C  0.46391380  0.69326006  0.68665782     0.76900
C1116       C  0.46513018  0.81027087  0.68558242     0.76900
O1117       O  0.31408077  0.49370221  0.67044842    -0.72200
O1118       O  0.29498580  0.98906756  0.71328938    -0.72500
O1119       O  0.30455942  0.94821017  0.69073519    -0.72300
O1120       O  0.30432031  0.53514421  0.69298100    -0.72300
O1121       O  0.25593016  0.53588384  0.68724347    -0.72300
O1122       O  0.25582368  0.94892654  0.68583430    -0.72300
O1123       O  0.24627541  0.49091235  0.70807834    -0.72300
O1124       O  0.26542813  0.99379394  0.66517974    -0.72400
V1125       V  0.30354451  0.99164096  0.69178419     1.35200
V1126       V  0.25681090  0.99237779  0.68668194     1.35200
C1127       C  0.29291512  0.99461082  0.66044779     0.77000
C1128       C  0.26746443  0.98844626  0.71797649     0.77000
C1129       C  0.28012504  0.93363589  0.68797379     0.76900
C1130       C  0.28032188  0.55046680  0.69008367     0.76900
O1131       O  0.24826787  0.74585798  0.70694024    -0.72200
O1132       O  0.26426448  0.74036292  0.66392832    -0.72500
O1133       O  0.25468861  0.69945297  0.68649361    -0.72300
O1134       O  0.25794260  0.78631569  0.68445341    -0.72300
O1135       O  0.30641627  0.78490555  0.68995278    -0.72300
O1136       O  0.30385997  0.69794901  0.69010895    -0.72300
O1137       O  0.31326462  0.74100878  0.66838416    -0.72300
O1138       O  0.29709424  0.74220635  0.71156405    -0.72400
V1139       V  0.25723344  0.74290884  0.68552361     1.35200
V1140       V  0.30423254  0.74147126  0.68990871     1.35200
C1141       C  0.26999740  0.74548944  0.71659890     0.77000
C1142       C  0.29142874  0.74010430  0.65876882     0.77000
C1143       C  0.27877902  0.68374200  0.68852146     0.76900
C1144       C  0.28258521  0.80054957  0.68724319     0.76900
O1145       O  0.49181365  0.49617279  0.79195292    -0.72200
O1146       O  0.99461627  0.48777935  0.83504546    -0.72500
O1147       O  0.03664566  0.49242908  0.81269063    -0.72300
O1148       O  0.44960318  0.49082760  0.81440063    -0.72300
O1149       O  0.44975742  0.94126623  0.81214947    -0.72300
O1150       O  0.03699578  0.94310351  0.80913604    -0.72300
O1151       O  0.49607488  0.93652139  0.83250982    -0.72300
O1152       O  0.98991142  0.94716857  0.78885132    -0.72400
V1153       V  0.99316329  0.49125288  0.81322729     1.35200
V1154       V  0.99332023  0.94366771  0.81069449     1.35200
C1155       C  0.98946783  0.97354192  0.78274366     0.77000
C1156       C  0.99576324  0.96157097  0.84124059     0.77000
C1157       C  0.05170576  0.46783324  0.81087680     0.76900
C1158       C  0.43475813  0.46598302  0.81376529     0.76900
O1159       O  0.49690396  0.79599273  0.78648848    -0.72200
O1160       O  0.00244735  0.80390464  0.83003479    -0.72500
O1161       O  0.04356907  0.80060342  0.80692925    -0.72300
O1162       O  0.45664127  0.79972685  0.80962365    -0.72300
O1163       O  0.45861803  0.75025203  0.81253718    -0.72300
O1164       O  0.04551744  0.75117305  0.80947269    -0.72300
O1165       O  0.50482243  0.75685983  0.83271215    -0.72300
O1166       O  0.99941863  0.74509175  0.78894422    -0.72400
V1167       V  0.00009804  0.79833235  0.80825992     1.35200
V1168       V  0.00195956  0.75075275  0.81067407     1.35200
C1169       C  0.99683796  0.76823961  0.78025328     0.77000
C1170       C  0.00365260  0.78065999  0.83876262     0.77000
C1171       C  0.05953464  0.77641026  0.80797132     0.76900
C1172       C  0.44279058  0.77456581  0.81154204     0.76900
O1173       O  0.24001686  0.93799653  0.83367549    -0.72200
O1174       O  0.24548234  0.94672336  0.78986535    -0.72500
O1175       O  0.28602876  0.94128020  0.81299479    -0.72300
O1176       O  0.19912549  0.94306896  0.81028322    -0.72300
O1177       O  0.19938156  0.49233927  0.81401581    -0.72300
O1178       O  0.28684217  0.49095141  0.81450303    -0.72300
O1179       O  0.24357955  0.49625077  0.79241581    -0.72300
O1180       O  0.24262469  0.48735733  0.83604111    -0.72400
V1181       V  0.24259850  0.94320947  0.81176864     1.35200
V1182       V  0.24307299  0.49076799  0.81420955     1.35200
C1183       C  0.24132232  0.46131120  0.84242120     0.77000
C1184       C  0.24531770  0.47302304  0.78366538     0.77000
C1185       C  0.30138658  0.96576961  0.81379242     0.76900
C1186       C  0.18439673  0.96797830  0.81167575     0.76900
O1187       O  0.24883759  0.75784426  0.83473710    -0.72200
O1188       O  0.25440701  0.74324140  0.79175739    -0.72500
O1189       O  0.29515639  0.75086242  0.81450456    -0.72300
O1190       O  0.20808932  0.75053287  0.81190185    -0.72300
O1191       O  0.20793356  0.79980043  0.80851444    -0.72300
O1192       O  0.29503102  0.79971919  0.80964404    -0.72300
O1193       O  0.25268694  0.79231419  0.78746951    -0.72300
O1194       O  0.25040064  0.80702833  0.83086266    -0.72400
V1195       V  0.25158628  0.75160588  0.81316813     1.35200
V1196       V  0.25151418  0.79881256  0.80922712     1.35200
C1197       C  0.24863317  0.78477535  0.84019041     0.77000
C1198       C  0.25472646  0.76516312  0.78226157     0.77000
C1199       C  0.30999778  0.77526090  0.81202291     0.76900
C1200       C  0.19305369  0.77502894  0.80970830     0.76900
O1201       O  0.44024850  0.50586414  0.33329464    -0.72200
O1202       O  0.45222213  0.00073811  0.28994297    -0.72500
O1203       O  0.44591680  0.96032745  0.31277022    -0.72300
O1204       O  0.44605387  0.54703305  0.31043275    -0.72300
O1205       O  0.99519965  0.54777705  0.31457560    -0.72300
O1206       O  0.99508090  0.96037973  0.31577045    -0.72300
O1207       O  0.00161511  0.50271366  0.29351209    -0.72300
O1208       O  0.98930640  0.00513821  0.33676432    -0.72400
V1209       V  0.44705934  0.00360559  0.31165527     1.35200
V1210       V  0.99435867  0.00408882  0.31508427     1.35200
C1211       C  0.96266843  0.00564163  0.34254446     0.77000
C1212       C  0.97903108  0.00042506  0.28443361     0.77000
C1213       C  0.47037104  0.94521500  0.31462372     0.76900
C1214       C  0.47047441  0.56216289  0.31225868     0.76900
O1215       O  0.43831164  0.75178321  0.33016288    -0.72200
O1216       O  0.44936805  0.75769507  0.28667182    -0.72500
O1217       O  0.44275362  0.71091541  0.30703980    -0.72300
O1218       O  0.44501077  0.79816991  0.31007095    -0.72300
O1219       O  0.99417087  0.79651634  0.31317400    -0.72300
O1220       O  0.99234195  0.70993198  0.30982115    -0.72300
O1221       O  0.99877233  0.75641793  0.28974968    -0.72300
O1222       O  0.98780015  0.74982461  0.33299275    -0.72400
V1223       V  0.44476668  0.75457359  0.30849535     1.35200
V1224       V  0.99226848  0.75323646  0.31133015     1.35200
C1225       C  0.96129435  0.74955107  0.33889386     0.77000
C1226       C  0.97607840  0.75875009  0.28073055     0.77000
C1227       C  0.46712148  0.69522438  0.30838981     0.76900
C1228       C  0.47012221  0.81200816  0.31237326     0.76900
O1229       O  0.31209125  0.00367794  0.33466306    -0.72200
O1230       O  0.30143037  0.49926003  0.29119433    -0.72500
O1231       O  0.30837921  0.54503477  0.31176481    -0.72300
O1232       O  0.30558180  0.95832665  0.31392739    -0.72300
O1233       O  0.25610684  0.95991215  0.31617400    -0.72300
O1234       O  0.25911105  0.54740105  0.31530727    -0.72300
O1235       O  0.25204198  0.00294025  0.29418761    -0.72300
O1236       O  0.26260878  0.50418685  0.33752775    -0.72400
V1237       V  0.30590985  0.50169078  0.31296698     1.35200
V1238       V  0.25842067  0.50364603  0.31578266     1.35200
C1239       C  0.28901346  0.50367346  0.34354960     0.77000
C1240       C  0.27483752  0.50006468  0.28532940     0.77000
C1241       C  0.28435903  0.56108752  0.31319414     0.76900
C1242       C  0.28046554  0.94411324  0.31510078     0.76900
O1243       O  0.25536373  0.75339709  0.29121016    -0.72200
O1244       O  0.26635585  0.75031279  0.33471422    -0.72500
O1245       O  0.26017922  0.79531858  0.31388879    -0.72300
O1246       O  0.26140313  0.70826155  0.31202354    -0.72300
O1247       O  0.31071686  0.70882710  0.30848492    -0.72300
O1248       O  0.30960518  0.79589569  0.31145228    -0.72300
O1249       O  0.31573217  0.74977572  0.33174092    -0.72300
O1250       O  0.30477425  0.75568134  0.28818837    -0.72400
V1251       V  0.26180197  0.75177034  0.31290598     1.35200
V1252       V  0.30927158  0.75244452  0.31000631     1.35200
C1253       C  0.27817235  0.75585766  0.28229548     0.77000
C1254       C  0.29283720  0.75005361  0.34072735     0.77000
C1255       C  0.28475600  0.81058710  0.31310102     0.76900
C1256       C  0.28614145  0.69366902  0.30982403     0.76900
O1257       O  0.41586328  0.49603481  0.45885008    -0.72200
O1258       O  0.42542979  0.99506642  0.41528886    -0.72500
O1259       O  0.42081143  0.95153502  0.43725734    -0.72300
O1260       O  0.42092775  0.53909523  0.43683953    -0.72300
O1261       O  0.96997262  0.53843915  0.44114403    -0.72300
O1262       O  0.97023624  0.95150101  0.43845706    -0.72300
O1263       O  0.97452640  0.49760225  0.41815823    -0.72300
O1264       O  0.96519306  0.99228651  0.46154708    -0.72400
V1265       V  0.42166761  0.99535904  0.43711479     1.35200
V1266       V  0.96902291  0.99494394  0.43979840     1.35200
C1267       C  0.93886785  0.99384752  0.46764809     0.77000
C1268       C  0.95150766  0.99723895  0.40929555     0.77000
C1269       C  0.44586208  0.93667000  0.43764328     0.76900
C1270       C  0.44559964  0.55377710  0.43902460     0.76900
O1271       O  0.42403270  0.74540938  0.45651287    -0.72200
O1272       O  0.42549230  0.74685556  0.41267491    -0.72500
O1273       O  0.42361513  0.70242394  0.43425117    -0.72300
O1274       O  0.42543050  0.78939627  0.43511891    -0.72300
O1275       O  0.97492721  0.78854865  0.43423725    -0.72300
O1276       O  0.97338365  0.70098547  0.43580388    -0.72300
O1277       O  0.97509989  0.74309289  0.41308748    -0.72300
O1278       O  0.97369194  0.74630832  0.45681967    -0.72400
V1279       V  0.42562079  0.74594051  0.43462443     1.35200
V1280       V  0.97335406  0.74474865  0.43494753     1.35200
C1281       C  0.94858387  0.74594241  0.46409479     0.77000
C1282       C  0.95060533  0.74519620  0.40533050     0.77000
C1283       C  0.44799087  0.68675681  0.43527155     0.76900
C1284       C  0.45048275  0.80385480  0.43476584     0.76900
O1285       O  0.33140384  0.49944598  0.41630959    -0.72200
O1286       O  0.33818045  0.99631953  0.46011539    -0.72500
O1287       O  0.33452756  0.95416919  0.43744179    -0.72300
O1288       O  0.33525811  0.54130028  0.43891211    -0.72300
O1289       O  0.28546611  0.54186877  0.43950134    -0.72300
O1290       O  0.28514806  0.95464976  0.44059125    -0.72300
O1291       O  0.28859123  0.49946864  0.46184489    -0.72300
O1292       O  0.28185302  0.99727006  0.41827548    -0.72400
V1293       V  0.33393384  0.99777114  0.43822078     1.35200
V1294       V  0.28623476  0.99825648  0.44001433     1.35200
C1295       C  0.30538664  0.99904893  0.40982070     0.77000
C1296       C  0.31439799  0.99815830  0.46846172     0.77000
C1297       C  0.30976993  0.93946675  0.43910831     0.76900
C1298       C  0.31048588  0.55648755  0.43922052     0.76900
O1299       O  0.28772343  0.74732760  0.45952531    -0.72200
O1300       O  0.28383231  0.74920305  0.41576000    -0.72500
O1301       O  0.28512204  0.70467847  0.43716057    -0.72300
O1302       O  0.28645387  0.79184321  0.43817372    -0.72300
O1303       O  0.33617017  0.79093270  0.43681108    -0.72300
O1304       O  0.33488027  0.70369471  0.43625427    -0.72300
O1305       O  0.33350414  0.74775153  0.41450179    -0.72300
O1306       O  0.33747190  0.74648641  0.45847632    -0.72400
V1307       V  0.28676944  0.74824316  0.43761972     1.35200
V1308       V  0.33456067  0.74728606  0.43652569     1.35200
C1309       C  0.31321540  0.74627655  0.46650842     0.77000
C1310       C  0.30789432  0.74856864  0.40758959     0.77000
C1311       C  0.30975449  0.68928153  0.43663994     0.76900
C1312       C  0.31152521  0.80631572  0.43755682     0.76900
O1313       O  0.99219444  0.93398634  0.04255996    -0.72200
O1314       O  0.49676745  0.93791766  0.08668007    -0.72500
O1315       O  0.45116306  0.93384717  0.06583952    -0.72300
O1316       O  0.03791409  0.93677271  0.06353340    -0.72300
O1317       O  0.03741343  0.48635133  0.06236709    -0.72300
O1318       O  0.44996623  0.48341565  0.06418139    -0.72300
O1319       O  0.99557804  0.48843804  0.08504511    -0.72300
O1320       O  0.49102865  0.48137981  0.04135878    -0.72400
V1321       V  0.49461136  0.93577552  0.06472133     1.35200
V1322       V  0.49341692  0.48339736  0.06316278     1.35200
C1323       C  0.49035733  0.45564067  0.03456140     0.77000
C1324       C  0.49652801  0.46384623  0.09331813     0.77000
C1325       C  0.43570624  0.95842107  0.06528361     0.76900
C1326       C  0.05265342  0.96163720  0.06274652     0.76900
O1327       O  0.50472614  0.82256209  0.03930863    -0.72200
O1328       O  0.00783414  0.81942103  0.08291172    -0.72500
O1329       O  0.04983092  0.81965492  0.06012593    -0.72300
O1330       O  0.46257086  0.82171408  0.06184582    -0.72300
O1331       O  0.46185852  0.77193010  0.06093794    -0.72300
O1332       O  0.04896249  0.76984593  0.05961634    -0.72300
O1333       O  0.50669743  0.76966510  0.08205473    -0.72300
O1334       O  0.00363259  0.77168457  0.03851477    -0.72400
V1335       V  0.00618141  0.81951862  0.06097700     1.35200
V1336       V  0.00537468  0.77167513  0.06036706     1.35200
C1337       C  0.00298416  0.79687049  0.03131723     0.77000
C1338       C  0.00762041  0.79414440  0.09006540     0.77000
C1339       C  0.06432968  0.79441827  0.05979025     0.76900
C1340       C  0.44728730  0.79708197  0.06154488     0.76900
O1341       O  0.24401563  0.94264756  0.08805589    -0.72200
O1342       O  0.24399500  0.93435561  0.04432478    -0.72500
O1343       O  0.28758643  0.93717592  0.06628040    -0.72300
O1344       O  0.20054307  0.93969449  0.06604201    -0.72300
O1345       O  0.20158078  0.48907777  0.06415865    -0.72300
O1346       O  0.28864496  0.48647138  0.06363449    -0.72300
O1347       O  0.24424986  0.48371312  0.04215830    -0.72300
O1348       O  0.24584676  0.49195589  0.08575529    -0.72400
V1349       V  0.24406095  0.93941722  0.06615575     1.35200
V1350       V  0.24510809  0.48684283  0.06399315     1.35200
C1351       C  0.24515399  0.46871749  0.09444155     0.77000
C1352       C  0.24371983  0.45755797  0.03576407     0.77000
C1353       C  0.30299760  0.96150803  0.06475163     0.76900
C1354       C  0.18606919  0.96484389  0.06488636     0.76900
O1355       O  0.25363663  0.76678695  0.08227405    -0.72200
O1356       O  0.25811329  0.77296281  0.03873287    -0.72500
O1357       O  0.29948654  0.76974705  0.06164036    -0.72300
O1358       O  0.21226345  0.77033690  0.05941868    -0.72300
O1359       O  0.21219551  0.82000511  0.06167487    -0.72300
O1360       O  0.29928460  0.81953936  0.06280640    -0.72300
O1361       O  0.25672003  0.82269363  0.04036320    -0.72300
O1362       O  0.25476051  0.81643464  0.08423303    -0.72400
V1363       V  0.25586319  0.77094026  0.06054229     1.35200
V1364       V  0.25575424  0.81871954  0.06225530     1.35200
C1365       C  0.25350351  0.79042619  0.09074458     0.77000
C1366       C  0.25810096  0.79874428  0.03207253     0.77000
C1367       C  0.31428810  0.79462473  0.06254605     0.76900
C1368       C  0.19735284  0.79531194  0.06015240     0.76900
O1369       O  0.50055452  0.49979984  0.16648007    -0.72200
O1370       O  0.99872668  0.50849074  0.21011396    -0.72500
O1371       O  0.04317818  0.50322997  0.18894450    -0.72300
O1372       O  0.45609341  0.50527298  0.18778420    -0.72300
O1373       O  0.45554566  0.95561871  0.18953169    -0.72300
O1374       O  0.04257798  0.95397461  0.19233704    -0.72300
O1375       O  0.49620052  0.95963794  0.21252537    -0.72300
O1376       O  0.00160479  0.94966947  0.16907142    -0.72400
V1377       V  0.99961011  0.50286646  0.18839975     1.35200
V1378       V  0.99910285  0.95527944  0.19083167     1.35200
C1379       C  0.00118655  0.97285436  0.16031562     0.77000
C1380       C  0.99673628  0.98533650  0.21880733     0.77000
C1381       C  0.05783890  0.47847701  0.19117324     0.76900
C1382       C  0.44088091  0.48064222  0.18865130     0.76900
O1383       O  0.50834795  0.80569780  0.16559838    -0.72200
O1384       O  0.00036477  0.79868175  0.20905965    -0.72500
O1385       O  0.04848339  0.80274923  0.18928560    -0.72300
O1386       O  0.46129968  0.80136906  0.18543673    -0.72300
O1387       O  0.46245948  0.75161351  0.18436839    -0.72300
O1388       O  0.04934763  0.75335493  0.18601086    -0.72300
O1389       O  0.50397716  0.74862697  0.20706714    -0.72300
O1390       O  0.00746162  0.75669604  0.16341240    -0.72400
V1391       V  0.00488009  0.80152328  0.18727208     1.35200
V1392       V  0.00583009  0.75384282  0.18519703     1.35200
C1393       C  0.00865904  0.78263359  0.15695117     0.77000
C1394       C  0.00027414  0.77251499  0.21538001     0.77000
C1395       C  0.06386973  0.77813663  0.18801349     0.76900
C1396       C  0.44699346  0.77624680  0.18444203     0.76900
O1397       O  0.25443629  0.96305345  0.21350768    -0.72200
O1398       O  0.24594586  0.95481642  0.17015543    -0.72500
O1399       O  0.29327631  0.95933714  0.18980445    -0.72300
O1400       O  0.20661428  0.95859294  0.19399981    -0.72300
O1401       O  0.20543094  0.50786581  0.19067801    -0.72300
O1402       O  0.29251324  0.50906503  0.18860094    -0.72300
O1403       O  0.24698094  0.50428390  0.16782868    -0.72300
O1404       O  0.25104699  0.51264985  0.21138039    -0.72400
V1405       V  0.24997773  0.95990087  0.19181598     1.35200
V1406       V  0.24896407  0.50753285  0.18965654     1.35200
C1407       C  0.25417116  0.48926966  0.21985075     0.77000
C1408       C  0.24565666  0.47806898  0.16150867     0.77000
C1409       C  0.30780287  0.98433632  0.18876530     0.76900
C1410       C  0.19107327  0.98311329  0.19290718     0.76900
O1411       O  0.25695707  0.74431423  0.20749894    -0.72200
O1412       O  0.25415495  0.75308299  0.16378654    -0.72500
O1413       O  0.29896755  0.74786755  0.18495650    -0.72300
O1414       O  0.21185674  0.74948917  0.18625036    -0.72300
O1415       O  0.21259278  0.79895759  0.18916265    -0.72300
O1416       O  0.29971839  0.79749193  0.18714307    -0.72300
O1417       O  0.25445437  0.80262267  0.16640422    -0.72300
O1418       O  0.25867227  0.79385447  0.21000828    -0.72400
V1419       V  0.25543373  0.74964082  0.18569140     1.35200
V1420       V  0.25624413  0.79726221  0.18814806     1.35200
C1421       C  0.25901935  0.76757123  0.21622420     0.77000
C1422       C  0.25428039  0.77941731  0.15760657     0.77000
C1423       C  0.31424239  0.77242213  0.18580448     0.76900
C1424       C  0.19726296  0.77448602  0.18768675     0.76900
O1425       O  0.48915993  0.47865383  0.91589632    -0.72200
O1426       O  0.98592223  0.48307421  0.95948808    -0.72500
O1427       O  0.03176164  0.48133750  0.93889905    -0.72300
O1428       O  0.44413601  0.47911805  0.93730116    -0.72300
O1429       O  0.44390933  0.92942470  0.93657097    -0.72300
O1430       O  0.03041770  0.93162073  0.93819962    -0.72300
O1431       O  0.48512263  0.92931376  0.95979094    -0.72300
O1432       O  0.98797737  0.93307719  0.91566768    -0.72400
V1433       V  0.98827083  0.48194121  0.93765859     1.35200
V1434       V  0.98679961  0.93414474  0.93769363     1.35200
C1435       C  0.99091189  0.95793176  0.90823742     0.77000
C1436       C  0.98563784  0.95846068  0.96715616     0.77000
C1437       C  0.04604698  0.45601953  0.93895921     0.76900
C1438       C  0.42915590  0.45432818  0.93702438     0.76900
O1439       O  0.50510442  0.82509901  0.91262413    -0.72200
O1440       O  0.00058788  0.82506028  0.95647948    -0.72500
O1441       O  0.04627348  0.82310086  0.93582794    -0.72300
O1442       O  0.45944200  0.82822464  0.93353361    -0.72300
O1443       O  0.45827490  0.77850248  0.93464909    -0.72300
O1444       O  0.04613813  0.77327594  0.93641752    -0.72300
O1445       O  0.50011437  0.77904546  0.95734652    -0.72300
O1446       O  0.00395310  0.77155404  0.91377451    -0.72400
V1447       V  0.00279132  0.82229521  0.93456508     1.35200
V1448       V  0.00247909  0.77449706  0.93554410     1.35200
C1449       C  0.00486086  0.79557814  0.90563187     0.77000
C1450       C  0.00038273  0.80071875  0.96442900     0.77000
C1451       C  0.06107595  0.79816099  0.93671123     0.76900
C1452       C  0.44391011  0.80379244  0.93387684     0.76900
O1453       O  0.23904606  0.92777414  0.96128587    -0.72200
O1454       O  0.23712363  0.92710886  0.91718076    -0.72500
O1455       O  0.28169227  0.92762414  0.93864312    -0.72300
O1456       O  0.19446455  0.92703571  0.93970774    -0.72300
O1457       O  0.19401301  0.47662832  0.93884731    -0.72300
O1458       O  0.28126735  0.47726529  0.93957747    -0.72300
O1459       O  0.23842620  0.47669506  0.91731269    -0.72300
O1460       O  0.23683354  0.47726004  0.96106382    -0.72400
V1461       V  0.23807252  0.92831289  0.93923094     1.35200
V1462       V  0.23763363  0.47596982  0.93920148     1.35200
C1463       C  0.23771304  0.45263098  0.96872723     0.77000
C1464       C  0.23787827  0.45186617  0.90968555     0.77000
C1465       C  0.29633722  0.95264175  0.93878694     0.76900
C1466       C  0.17925640  0.95180384  0.93922310     0.76900
O1467       O  0.25604143  0.77690014  0.95810350    -0.72200
O1468       O  0.25023406  0.77405148  0.91444734    -0.72500
O1469       O  0.29652888  0.77664083  0.93476991    -0.72300
O1470       O  0.20976769  0.77414482  0.93764505    -0.72300
O1471       O  0.20784515  0.82390823  0.93645663    -0.72300
O1472       O  0.29512002  0.82642220  0.93464119    -0.72300
O1473       O  0.24991228  0.82388730  0.91366139    -0.72300
O1474       O  0.25306327  0.82664588  0.95748583    -0.72400
V1475       V  0.25311933  0.77642963  0.93625138     1.35200
V1476       V  0.25150996  0.82428389  0.93558948     1.35200
C1477       C  0.25505343  0.80221734  0.96528669     0.77000
C1478       C  0.24957261  0.79845638  0.90657828     0.77000
C1479       C  0.31072158  0.80183512  0.93408240     0.76900
C1480       C  0.19393058  0.79848430  0.93723037     0.76900
O1481       O  0.42031434  0.50261756  0.58597216    -0.72200
O1482       O  0.41306653  0.00194459  0.54216331    -0.72500
O1483       O  0.41816355  0.95854435  0.56406199    -0.72300
O1484       O  0.41514392  0.54592542  0.56400293    -0.72300
O1485       O  0.96435237  0.54728062  0.56086578    -0.72300
O1486       O  0.96809327  0.96015345  0.56275462    -0.72300
O1487       O  0.96270149  0.50128907  0.54021282    -0.72300
O1488       O  0.96983359  0.00582279  0.58368989    -0.72400
V1489       V  0.41760411  0.00228656  0.56401804     1.35200
V1490       V  0.96527349  0.00368357  0.56196700     1.35200
C1491       C  0.94650123  0.00422703  0.59229310     0.77000
C1492       C  0.93673543  0.00078486  0.53380235     0.77000
C1493       C  0.44354302  0.94437529  0.56317237     0.76900
C1494       C  0.43935735  0.56145642  0.56229872     0.76900
O1495       O  0.41852103  0.75237448  0.58273790    -0.72200
O1496       O  0.41788907  0.75405130  0.53861409    -0.72500
O1497       O  0.41663188  0.70978291  0.56030631    -0.72300
O1498       O  0.41902948  0.79679470  0.56129137    -0.72300
O1499       O  0.96888686  0.79562147  0.56043884    -0.72300
O1500       O  0.96615946  0.70804472  0.56007498    -0.72300
O1501       O  0.96749887  0.75172271  0.53846649    -0.72300
O1502       O  0.96822323  0.75173538  0.58209369    -0.72400
V1503       V  0.41896652  0.75327414  0.56069193     1.35200
V1504       V  0.96670212  0.75181210  0.56027693     1.35200
C1505       C  0.94367646  0.75185540  0.58984424     0.77000
C1506       C  0.94270887  0.75278484  0.53093420     0.77000
C1507       C  0.44108873  0.69413659  0.56016634     0.76900
C1508       C  0.44412278  0.81120765  0.56130691     0.76900
O1509       O  0.34224728  0.49191637  0.54322292    -0.72200
O1510       O  0.33898683  0.99285606  0.58725569    -0.72500
O1511       O  0.33990641  0.94865181  0.56532679    -0.72300
O1512       O  0.34118423  0.53627051  0.56497596    -0.72300
O1513       O  0.29135512  0.53679656  0.56437801    -0.72300
O1514       O  0.29011849  0.94980786  0.56429502    -0.72300
O1515       O  0.28925171  0.49351227  0.58610160    -0.72300
O1516       O  0.29244924  0.99345567  0.54239498    -0.72400
V1517       V  0.33966648  0.99242193  0.56517763     1.35200
V1518       V  0.29182794  0.99330977  0.56428630     1.35200
C1519       C  0.31780197  0.99281803  0.53529569     0.77000
C1520       C  0.31339022  0.99345754  0.59419263     0.77000
C1521       C  0.31466176  0.93434850  0.56495113     0.76900
C1522       C  0.31630048  0.55142222  0.56475257     0.76900
O1523       O  0.33807817  0.74225616  0.54132843    -0.72200
O1524       O  0.33532713  0.74355092  0.58550181    -0.72500
O1525       O  0.33752127  0.69932918  0.56356847    -0.72300
O1526       O  0.33686325  0.78634830  0.56309140    -0.72300
O1527       O  0.28705014  0.78655552  0.56318618    -0.72300
O1528       O  0.28774282  0.69880586  0.56220871    -0.72300
O1529       O  0.28560953  0.74158699  0.58441576    -0.72300
O1530       O  0.28831993  0.74368190  0.54083560    -0.72400
V1531       V  0.33599945  0.74284969  0.56338115     1.35200
V1532       V  0.28816256  0.74266552  0.56266285     1.35200
C1533       C  0.31341344  0.74346052  0.53356396     0.77000
C1534       C  0.30973455  0.74242155  0.59246477     0.77000
C1535       C  0.31292786  0.68417857  0.56277362     0.76900
C1536       C  0.31203389  0.80138866  0.56303603     0.76900
C1537       C  0.33598430  0.88432712  0.55637662    -0.09600
C1538       C  0.31382225  0.90040189  0.56486126     0.06600
C1539       C  0.29080738  0.88371604  0.57261129    -0.03400
C1540       C  0.29021623  0.85157956  0.57161894    -0.07800
C1541       C  0.31242283  0.83545571  0.56310940     0.05700
C1542       C  0.33528622  0.85230707  0.55532416    -0.02900
Br1543     Br  0.36516368  0.83347481  0.54226386    -0.02600
H1544       H  0.35356556  0.89681480  0.55018494     0.09600
H1545       H  0.27274204  0.83908319  0.57786964     0.07600
Br1546     Br  0.26095879  0.90330366  0.58561948    -0.03000
C1547       C  0.33653465  0.60128222  0.55520007    -0.09600
C1548       C  0.31600020  0.58538872  0.56470374     0.06600
C1549       C  0.29441054  0.60224675  0.57345495    -0.03400
C1550       C  0.29334159  0.63431623  0.57240959    -0.07800
C1551       C  0.31377939  0.65021699  0.56288671     0.05700
C1552       C  0.33546792  0.63340418  0.55416869    -0.02900
Br1553     Br  0.36250433  0.65291438  0.53977775    -0.02600
H1554       H  0.35292938  0.58864503  0.54826050     0.09600
H1555       H  0.27697219  0.64694351  0.57936689     0.07600
Br1556     Br  0.26718404  0.58291085  0.58782262    -0.03000
C1557       C  0.92277273  0.89377151  0.57100832    -0.09600
C1558       C  0.44456375  0.91033979  0.56271574     0.06600
C1559       C  0.46669031  0.89393519  0.55403793    -0.03400
C1560       C  0.46649512  0.86171839  0.55391527    -0.07800
C1561       C  0.44439528  0.84523276  0.56220704     0.05700
C1562       C  0.92267265  0.86163213  0.57094439    -0.02900
Br1563     Br  0.89319288  0.84173386  0.58391288    -0.02600
H1564       H  0.90565611  0.90592273  0.57773807     0.09600
H1565       H  0.48323747  0.84950763  0.54699273     0.07600
Br1566     Br  0.49629909  0.91398874  0.54118626    -0.03000
C1567       C  0.95740193  0.61038411  0.55094857    -0.09600
C1568       C  0.43843300  0.59540835  0.56155751     0.06600
C1569       C  0.41887432  0.61317128  0.57103134    -0.03400
C1570       C  0.41969811  0.64530363  0.57021390    -0.07800
C1571       C  0.43986303  0.66024966  0.56012453     0.05700
C1572       C  0.95799459  0.64246554  0.55003711    -0.02900
Br1573     Br  0.98303764  0.66084451  0.53442368    -0.02600
H1574       H  0.97192778  0.59706858  0.54331079     0.09600
H1575       H  0.40505758  0.65869494  0.57776704     0.07600
Br1576     Br  0.39237814  0.59508389  0.58613212    -0.03000
C1577       C  0.36028742  0.82878905  0.93829047    -0.09600
C1578       C  0.34472889  0.80259606  0.93302586     0.06600
C1579       C  0.36215818  0.77753191  0.92734329    -0.03400
C1580       C  0.39425383  0.77865947  0.92763884    -0.07800
C1581       C  0.40983131  0.80448078  0.93333653     0.05700
C1582       C  0.39239348  0.82989203  0.93859337    -0.02900
Br1583     Br  0.41048934  0.86584473  0.94756752    -0.02600
H1584       H  0.34742399  0.84824956  0.94269975     0.09600
H1585       H  0.40714242  0.75916490  0.92327736     0.07600
Br1586     Br  0.34401412  0.74153287  0.91834631    -0.03000
C1587       C  0.14378908  0.82090620  0.94506737    -0.09600
C1588       C  0.16000392  0.79732555  0.93758792     0.06600
C1589       C  0.14338560  0.77348782  0.93037507    -0.03400
C1590       C  0.11127838  0.77392620  0.93057814    -0.07800
C1591       C  0.09502631  0.79795851  0.93768240     0.05700
C1592       C  0.11167226  0.82142723  0.94519852    -0.02900
Br1593     Br  0.09227515  0.85407789  0.95645807    -0.02600
H1594       H  0.15620702  0.83906089  0.95091623     0.09600
H1595       H  0.09891810  0.75580034  0.92468477     0.07600
Br1596     Br  0.16286506  0.74095918  0.91898350    -0.03000
C1597       C  0.37898807  0.93369100  0.92820546    -0.09600
C1598       C  0.39521051  0.45449879  0.93741096     0.06600
C1599       C  0.37864295  0.47454466  0.94717118    -0.03400
C1600       C  0.34650723  0.47365713  0.94739242    -0.07800
C1601       C  0.33027409  0.95297565  0.93810585     0.05700
C1602       C  0.34686283  0.93282880  0.92842120    -0.02900
Br1603     Br  0.32693329  0.90525323  0.91440897    -0.02600
H1604       H  0.39136907  0.91820866  0.92064484     0.09600
H1605       H  0.33413104  0.48890472  0.95507469     0.07600
Br1606     Br  0.39860341  0.50202834  0.96127649    -0.03000
C1607       C  0.12987814  0.47769110  0.94521670    -0.09600
C1608       C  0.14517060  0.95191936  0.93932205     0.06600
C1609       C  0.12755495  0.92718192  0.93361267    -0.03400
C1610       C  0.09543425  0.92886406  0.93387856    -0.07800
C1611       C  0.08011878  0.45489653  0.93959641     0.05700
C1612       C  0.09781236  0.47942994  0.94549319    -0.02900
Br1613     Br  0.08011663  0.51545760  0.95481886    -0.02600
H1614       H  0.14295606  0.49671881  0.94985838     0.09600
H1615       H  0.08239294  0.90986374  0.92919423     0.07600
Br1616     Br  0.14558568  0.89141029  0.92424531    -0.03000
C1617       C  0.39818086  0.74857205  0.18899034    -0.09600
C1618       C  0.41303685  0.77531003  0.18394059     0.06600
C1619       C  0.39502993  0.80049910  0.17903150    -0.03400
C1620       C  0.36303181  0.79880941  0.17970829    -0.07800
C1621       C  0.34818571  0.77230978  0.18504580     0.05700
C1622       C  0.36616854  0.74684728  0.18962265    -0.02900
Br1623     Br  0.34899769  0.70974413  0.19782162    -0.02600
H1624       H  0.41154716  0.72905932  0.19288538     0.09600
H1625       H  0.34964152  0.81835843  0.17587793     0.07600
Br1626     Br  0.41219253  0.83740849  0.17060637    -0.03000
C1627       C  0.11345041  0.75438961  0.18026618    -0.09600
C1628       C  0.09800083  0.77789055  0.18826845     0.06600
C1629       C  0.11558248  0.80024231  0.19608008    -0.03400
C1630       C  0.14774782  0.79884786  0.19560049    -0.07800
C1631       C  0.16315088  0.77519583  0.18766425     0.05700
C1632       C  0.14551693  0.75286154  0.17985018    -0.02900
Br1633     Br  0.16336375  0.72062559  0.16757818    -0.02600
H1634       H  0.10045775  0.73720763  0.17401494     0.09600
H1635       H  0.16081678  0.81606406  0.20178172     0.07600
Br1636     Br  0.09735948  0.83188996  0.20852152    -0.03000
C1637       C  0.39144716  0.50697214  0.18263551    -0.09600
C1638       C  0.40683900  0.48121202  0.18865331     0.06600
C1639       C  0.38924655  0.95684826  0.19469780    -0.03400
C1640       C  0.35725162  0.95848481  0.19436834    -0.07800
C1641       C  0.34182523  0.98414240  0.18832829     0.05700
C1642       C  0.35933542  0.50867200  0.18241376    -0.02900
Br1643     Br  0.34126365  0.54455947  0.17324539    -0.02600
H1644       H  0.40447285  0.52588743  0.17789917     0.09600
H1645       H  0.34430578  0.93964050  0.19923326     0.07600
Br1646     Br  0.40681597  0.92136221  0.20452891    -0.03000
C1647       C  0.10674791  0.50716030  0.19407691    -0.09600
C1648       C  0.09190033  0.47870940  0.19250892     0.06600
C1649       C  0.11008110  0.95168122  0.19227477    -0.03400
C1650       C  0.14210587  0.95382791  0.19283290    -0.07800
C1651       C  0.15696983  0.98238824  0.19372326     0.05700
C1652       C  0.13873281  0.50927808  0.19482724    -0.02900
Br1653     Br  0.15528602  0.54972976  0.19779210    -0.02600
H1654       H  0.09336583  0.52817003  0.19476617     0.09600
H1655       H  0.15549795  0.93281663  0.19221420     0.07600
Br1656     Br  0.09346407  0.91098688  0.19068650    -0.03000
C1657       C  0.24167829  0.82339331  0.00746192    -0.09600
C1658       C  0.25896906  0.80063475  0.01500598     0.06600
C1659       C  0.27567795  0.77926982  0.00602666    -0.03400
C1660       C  0.27417189  0.78044372  0.98993978    -0.07800
C1661       C  0.25652423  0.80286050  0.98237269     0.05700
C1662       C  0.24026449  0.82464863  0.99133016    -0.02900
Br1663     Br  0.21361815  0.85493621  0.98233378    -0.02600
H1664       H  0.22835136  0.83967822  0.01414379     0.09600
H1665       H  0.28713450  0.76381315  0.98328801     0.07600
Br1666     Br  0.30220754  0.74880181  0.01496622    -0.03000
C1667       C  0.26698242  0.81022334  0.11688953    -0.09600
C1668       C  0.25263480  0.78766841  0.10784080     0.06600
C1669       C  0.23850488  0.76264357  0.11536726    -0.03400
C1670       C  0.23958541  0.76034748  0.13146994    -0.07800
C1671       C  0.25403831  0.78285209  0.14052368     0.05700
C1672       C  0.26789962  0.80803288  0.13299686    -0.02900
Br1673     Br  0.29028364  0.83925770  0.14383836    -0.02600
H1674       H  0.27823480  0.82943476  0.11137623     0.09600
H1675       H  0.22844251  0.74106581  0.13697927     0.07600
Br1676     Br  0.21548278  0.73188391  0.10450939    -0.03000
C1677       C  0.22799630  0.47913331  0.01046459    -0.09600
C1678       C  0.24185416  0.45499563  0.01866728     0.06600
C1679       C  0.25318073  0.92971140  0.01028342    -0.03400
C1680       C  0.25107392  0.92911997  0.99412692    -0.07800
C1681       C  0.23775836  0.45335441  0.98593098     0.05700
C1682       C  0.22559826  0.47843921  0.99438455    -0.02900
Br1683     Br  0.20383654  0.51200810  0.98499060    -0.02600
H1684       H  0.21852475  0.49852974  0.01659540     0.09600
H1685       H  0.26057979  0.90980216  0.98798296     0.07600
Br1686     Br  0.27362587  0.89579240  0.02002654    -0.03000
C1687       C  0.23821200  0.44591047  0.12056581    -0.09600
C1688       C  0.24528930  0.47179147  0.11158957     0.06600
C1689       C  0.25219846  0.99971544  0.11929534    -0.03400
C1690       C  0.25164939  0.00102932  0.13540832    -0.07800
C1691       C  0.24466296  0.47508244  0.14438866     0.05700
C1692       C  0.23782329  0.44721630  0.13669425    -0.02900
Br1693     Br  0.22696234  0.40997699  0.14717099    -0.02600
H1694       H  0.23270195  0.42433481  0.11501060     0.09600
H1695       H  0.25734478  0.02255274  0.14097052     0.07600
Br1696     Br  0.26399650  0.03678598  0.10893661    -0.03000
C1697       C  0.36350323  0.82021929  0.05634561    -0.09600
C1698       C  0.34828774  0.79502319  0.06284962     0.06600
C1699       C  0.36592935  0.77109438  0.06936401    -0.03400
C1700       C  0.39802942  0.77226686  0.06874478    -0.07800
C1701       C  0.41326055  0.79730129  0.06204052     0.05700
C1702       C  0.39555312  0.82161971  0.05591394    -0.02900
Br1703     Br  0.41324622  0.85667631  0.04600707    -0.02600
H1704       H  0.35036174  0.83880964  0.05128788     0.09600
H1705       H  0.41118388  0.75370667  0.07381836     0.07600
Br1706     Br  0.34782525  0.73742386  0.08028296    -0.03000
C1707       C  0.11423147  0.81774666  0.05230634    -0.09600
C1708       C  0.09838366  0.79385614  0.05963400     0.06600
C1709       C  0.11549345  0.77036235  0.06688818    -0.03400
C1710       C  0.14759749  0.77114325  0.06665170    -0.07800
C1711       C  0.16339523  0.79534981  0.05960782     0.05700
C1712       C  0.14636765  0.81890638  0.05236830    -0.02900
Br1713     Br  0.16548170  0.85240747  0.04171974    -0.02600
H1714       H  0.10153288  0.83543012  0.04630127     0.09600
H1715       H  0.16032356  0.75309301  0.07241833     0.07600
Br1716     Br  0.09671942  0.73767890  0.07825767    -0.03000
C1717       C  0.98858799  0.77521009  0.98931492    -0.09600
C1718       C  0.99968931  0.80121953  0.98156186     0.06600
C1719       C  0.51191896  0.82847650  0.99065431    -0.03400
C1720       C  0.51298548  0.82576412  0.00671585    -0.07800
C1721       C  0.00104064  0.79779304  0.01422957     0.05700
C1722       C  0.98887782  0.77336794  0.00540094    -0.02900
Br1723     Br  0.97100206  0.73731119  0.01436479    -0.02600
H1724       H  0.97936679  0.75609615  0.98281256     0.09600
H1725       H  0.52340277  0.84405378  0.01334921     0.07600
Br1726     Br  0.52918730  0.86496034  0.98198734    -0.03000
C1727       C  0.50368495  0.81379856  0.13313473    -0.09600
C1728       C  0.00935317  0.78542415  0.13982400     0.06600
C1729       C  0.01416718  0.75986752  0.12998596    -0.03400
C1730       C  0.01380601  0.76368708  0.11401925    -0.07800
C1731       C  0.00834284  0.79244395  0.10721481     0.05700
C1732       C  0.50274231  0.81754233  0.11709011    -0.02900
Br1733     Br  0.49266418  0.85785252  0.10965274    -0.02600
H1734       H  0.49954659  0.83366260  0.14036967     0.09600
H1735       H  0.01778909  0.74369217  0.10685361     0.07600
Br1736     Br  0.02164314  0.71874241  0.13712660    -0.03000
C1737       C  0.38641123  0.48151335  0.05737926    -0.09600
C1738       C  0.40178758  0.95816540  0.06530108     0.06600
C1739       C  0.38440016  0.93513776  0.07262813    -0.03400
C1740       C  0.35227630  0.93653567  0.07220216    -0.07800
C1741       C  0.33694059  0.96046482  0.06448053     0.05700
C1742       C  0.35441357  0.48259691  0.05672739    -0.02900
Br1743     Br  0.33646686  0.51391507  0.04399420    -0.02600
H1744       H  0.39929480  0.49875080  0.05133546     0.09600
H1745       H  0.33932370  0.91918072  0.07811778     0.07600
Br1746     Br  0.40271814  0.90207029  0.08406314    -0.03000
C1747       C  0.10202634  0.49037151  0.06339020    -0.09600
C1748       C  0.08682872  0.96203506  0.06267103     0.06600
C1749       C  0.10480542  0.93490746  0.06240397    -0.03400
C1750       C  0.13676245  0.93671119  0.06317905    -0.07800
C1751       C  0.15194872  0.96506870  0.06413298     0.05700
C1752       C  0.13409041  0.49217172  0.06409944    -0.02900
Br1753     Br  0.15117801  0.53276637  0.06518283    -0.02600
H1754       H  0.08889348  0.51153250  0.06356238     0.09600
H1755       H  0.14981898  0.91550322  0.06298286     0.07600
Br1756     Br  0.08802775  0.89431159  0.06089861    -0.03000
C1757       C  0.49196287  0.48166681  0.00907818    -0.09600
C1758       C  0.48769853  0.45435652  0.01737607     0.06600
C1759       C  0.98127132  0.93046127  0.00869913    -0.03400
C1760       C  0.98019064  0.93151628  0.99252679    -0.07800
C1761       C  0.98563012  0.95890975  0.98439600     0.05700
C1762       C  0.49037799  0.48249120  0.99299791    -0.02900
Br1763     Br  0.49578331  0.52231014  0.98387259    -0.02600
H1764       H  0.49674004  0.50288153  0.01514595     0.09600
H1765       H  0.97473248  0.91069465  0.98627553     0.07600
Br1766     Br  0.97122250  0.89202707  0.01816494    -0.03000
C1767       C  0.48913122  0.49475490  0.13440031    -0.09600
C1768       C  0.00054636  0.96981782  0.14318811     0.06600
C1769       C  0.01091898  0.94336270  0.13519574    -0.03400
C1770       C  0.00945265  0.94226267  0.11903947    -0.07800
C1771       C  0.49757321  0.46656103  0.11044320     0.05700
C1772       C  0.48708210  0.49307843  0.11833542    -0.02900
Br1773     Br  0.46774251  0.52728371  0.10822528    -0.02600
H1774       H  0.48072914  0.51526172  0.14011566     0.09600
H1775       H  0.01827312  0.92216849  0.11314990     0.07600
Br1776     Br  0.02829848  0.90828146  0.14541098    -0.03000
C1777       C  0.29134617  0.76103248  0.49195977    -0.09600
C1778       C  0.31419063  0.74532653  0.48364979     0.06600
C1779       C  0.33682845  0.72886672  0.49193165    -0.03400
C1780       C  0.33632007  0.72861422  0.50811983    -0.07800
C1781       C  0.31356882  0.74458066  0.51641521     0.05700
C1782       C  0.29095447  0.76101599  0.50808647    -0.02900
Br1783     Br  0.25985187  0.78557493  0.51792268    -0.02600
H1784       H  0.27389712  0.77394946  0.48586178     0.09600
H1785       H  0.35363883  0.71559139  0.51424943     0.07600
Br1786     Br  0.36769688  0.70451873  0.48184704    -0.03000
C1787       C  0.28822324  0.85580957  0.44591272    -0.09600
C1788       C  0.31169558  0.84035369  0.43792672     0.06600
C1789       C  0.33444179  0.85782336  0.43045064    -0.03400
C1790       C  0.33333478  0.88991320  0.43107615    -0.07800
C1791       C  0.30984838  0.90540351  0.43903557     0.05700
C1792       C  0.28720420  0.88792319  0.44663346    -0.02900
Br1793     Br  0.25531934  0.90605334  0.45897479    -0.02600
H1794       H  0.27077111  0.84279929  0.45189078     0.09600
H1795       H  0.35080340  0.90285989  0.42507270     0.07600
Br1796     Br  0.36644408  0.83963304  0.41830469    -0.03000
C1797       C  0.28577059  0.60581722  0.43192166    -0.09600
C1798       C  0.31055668  0.59044891  0.43885818     0.06600
C1799       C  0.33479889  0.60788931  0.44512050    -0.03400
C1800       C  0.33422470  0.63991447  0.44397642    -0.07800
C1801       C  0.30949458  0.65530594  0.43699188     0.05700
C1802       C  0.28497137  0.63787813  0.43096773    -0.02900
Br1803     Br  0.25038871  0.65604533  0.42065185    -0.02600
H1804       H  0.26702294  0.59278914  0.42700112     0.09600
H1805       H  0.35290676  0.65292476  0.44897977     0.07600
Br1806     Br  0.36785697  0.58977973  0.45663545    -0.03000
C1807       C  0.33916760  0.98070142  0.49296691    -0.09600
C1808       C  0.31640860  0.99829251  0.48555550     0.06600
C1809       C  0.29502111  0.51462629  0.49471192    -0.03400
C1810       C  0.29615198  0.51245683  0.51077147    -0.07800
C1811       C  0.31837500  0.99435044  0.51818920     0.05700
C1812       C  0.34007161  0.97831961  0.50910172    -0.02900
Br1813     Br  0.36925073  0.95032920  0.51793086    -0.02600
H1814       H  0.35558082  0.96776454  0.48617672     0.09600
H1815       H  0.27958215  0.52527016  0.51752529     0.07600
Br1816     Br  0.26452261  0.54159883  0.48610534    -0.03000
C1817       C  0.96889747  0.73703662  0.50661880    -0.09600
C1818       C  0.94362414  0.75142488  0.51377612     0.06600
C1819       C  0.42067095  0.76419089  0.50446156    -0.03400
C1820       C  0.42285052  0.76200180  0.48842613    -0.07800
C1821       C  0.94772686  0.74728894  0.48116768     0.05700
C1822       C  0.97114842  0.73486144  0.49055071    -0.02900
Br1823     Br  0.00599493  0.71321911  0.48231665    -0.02600
H1824       H  0.98693283  0.72697572  0.51356699     0.09600
H1825       H  0.40497480  0.77228730  0.48144637     0.07600
Br1826     Br  0.38664412  0.78695579  0.51235220    -0.03000
C1827       C  0.96937985  0.88813046  0.42845556    -0.09600
C1828       C  0.44668458  0.90271225  0.43702232     0.06600
C1829       C  0.42533517  0.88453630  0.44502733    -0.03400
C1830       C  0.42729964  0.85249696  0.44417185    -0.07800
C1831       C  0.45021514  0.83784904  0.43540411     0.05700
C1832       C  0.97119128  0.85605089  0.42744587    -0.02900
Br1833     Br  0.00199226  0.83871837  0.41418942    -0.02600
H1834       H  0.98585202  0.90184441  0.42217577     0.09600
H1835       H  0.41086036  0.83888938  0.45053633     0.07600
Br1836     Br  0.39430291  0.90198942  0.45811585    -0.03000
C1837       C  0.42401790  0.60337071  0.42976549    -0.09600
C1838       C  0.44605830  0.58785107  0.43866034     0.06600
C1839       C  0.96865666  0.60526116  0.44652430    -0.03400
C1840       C  0.96915633  0.63727266  0.44494083    -0.07800
C1841       C  0.44693476  0.65275921  0.43609100     0.05700
C1842       C  0.42408443  0.63541463  0.42852118    -0.02900
Br1843     Br  0.39327374  0.65366091  0.41560878    -0.02600
H1844       H  0.40672928  0.59046092  0.42356210     0.09600
H1845       H  0.98644106  0.65028126  0.45109659     0.07600
Br1846     Br  0.99811586  0.58725667  0.46031447    -0.03000
C1847       C  0.41927220  0.01759898  0.49176872    -0.09600
C1848       C  0.93554117  0.99370094  0.48454281     0.06600
C1849       C  0.95031345  0.47134112  0.49357810    -0.03400
C1850       C  0.95003213  0.47390987  0.50961506    -0.07800
C1851       C  0.93462413  0.99818784  0.51692606     0.05700
C1852       C  0.41873620  0.02000680  0.50788168    -0.02900
Br1853     Br  0.39812922  0.05454498  0.51702974    -0.02600
H1854       H  0.40785745  0.03500862  0.48491458     0.09600
H1855       H  0.96186366  0.45674292  0.51644628     0.07600
Br1856     Br  0.97002111  0.43612031  0.48456673    -0.03000
C1857       C  0.25459913  0.73807106  0.25766901    -0.09600
C1858       C  0.27363898  0.75896536  0.26541866     0.06600
C1859       C  0.28722657  0.78293530  0.25695631    -0.03400
C1860       C  0.28158860  0.78564331  0.24109621    -0.07800
C1861       C  0.26306880  0.76433261  0.23321152     0.05700
C1862       C  0.24961060  0.74024240  0.24172795    -0.02900
Br1863     Br  0.22316847  0.71027617  0.23246529    -0.02600
H1864       H  0.24381209  0.71969396  0.26403227     0.09600
H1865       H  0.29218360  0.80428122  0.23484721     0.07600
Br1866     Br  0.31248457  0.81345988  0.26663149    -0.03000
C1867       C  0.32374313  0.73775139  0.36438697    -0.09600
C1868       C  0.29693127  0.75030143  0.35782654     0.06600
C1869       C  0.27466219  0.76312977  0.36782482    -0.03400
C1870       C  0.27901647  0.76230171  0.38379922    -0.07800
C1871       C  0.30546731  0.74927222  0.39041431     0.05700
C1872       C  0.32813055  0.73701337  0.38043867    -0.02900
Br1873     Br  0.36460862  0.71712043  0.38786644    -0.02600
H1874       H  0.34121192  0.72782682  0.35699141     0.09600
H1875       H  0.26154021  0.77238027  0.39113866     0.07600
Br1876     Br  0.23849430  0.78398416  0.36058809    -0.03000
C1877       C  0.30893951  0.89461710  0.31510240    -0.09600
C1878       C  0.28043166  0.90991037  0.31502993     0.06600
C1879       C  0.25340794  0.89203520  0.31447760    -0.03400
C1880       C  0.25553469  0.85992685  0.31402384    -0.07800
C1881       C  0.28410617  0.84471642  0.31395638     0.05700
C1882       C  0.31108071  0.86262549  0.31454561    -0.02900
Br1883     Br  0.35188453  0.84565864  0.31470991    -0.02600
H1884       H  0.33004663  0.90763762  0.31552511     0.09600
H1885       H  0.23449664  0.84678803  0.31351632     0.07600
Br1886     Br  0.21276199  0.90927486  0.31382629    -0.03000
C1887       C  0.26126107  0.61066537  0.30499448    -0.09600
C1888       C  0.28567970  0.59495794  0.31204696     0.06600
C1889       C  0.31106965  0.61192638  0.31749415    -0.03400
C1890       C  0.31123718  0.64395145  0.31612523    -0.07800
C1891       C  0.28639507  0.65970325  0.30948958     0.05700
C1892       C  0.26154074  0.64266942  0.30354574    -0.02900
Br1893     Br  0.22824738  0.66155395  0.29251572    -0.02600
H1894       H  0.24202856  0.59792010  0.30034770     0.09600
H1895       H  0.33044421  0.65670243  0.32079363     0.07600
Br1896     Br  0.34513266  0.59317056  0.32799149    -0.03000
C1897       C  0.28002122  0.97283822  0.24388133    -0.09600
C1898       C  0.25870830  0.49229963  0.23664270     0.06600
C1899       C  0.24259378  0.51415158  0.24556397    -0.03400
C1900       C  0.24825285  0.51636527  0.26139371    -0.07800
C1901       C  0.27014179  0.49742584  0.26855632     0.05700
C1902       C  0.28592687  0.97529653  0.25966039    -0.02900
Br1903     Br  0.31422347  0.94647095  0.26860609    -0.02600
H1904       H  0.29239254  0.95574845  0.23720547     0.09600
H1905       H  0.23551499  0.53305055  0.26815344     0.07600
Br1906     Br  0.21131769  0.54019069  0.23699761    -0.03000
C1907       C  0.27705640  0.48536431  0.38595060    -0.09600
C1908       C  0.30201281  0.00048348  0.39282024     0.06600
C1909       C  0.32217997  0.01736858  0.38336222    -0.03400
C1910       C  0.31756892  0.01811514  0.36737738    -0.07800
C1911       C  0.29279928  0.50267648  0.36051883     0.05700
C1912       C  0.27232294  0.48627923  0.37002392    -0.02900
Br1913     Br  0.23830217  0.46322659  0.36202217    -0.02600
H1914       H  0.26128059  0.47237642  0.39299178     0.09600
H1915       H  0.33301013  0.03143510  0.36031392     0.07600
Br1916     Br  0.35478844  0.04198425  0.39162089    -0.03000
C1917       C  0.00697815  0.74776473  0.25720262    -0.09600
C1918       C  0.98116950  0.76207582  0.26386369     0.06600
C1919       C  0.46179775  0.77962795  0.25446400    -0.03400
C1920       C  0.46891807  0.78332952  0.23881485    -0.07800
C1921       C  0.99466607  0.76927301  0.23211107     0.05700
C1922       C  0.01357327  0.75088348  0.24149574    -0.02900
Br1923     Br  0.04953736  0.73077345  0.23357131    -0.02600
H1924       H  0.02212227  0.73387930  0.26425674     0.09600
H1925       H  0.45396026  0.79724000  0.23166691     0.07600
Br1926     Br  0.42619799  0.80083444  0.26213659    -0.03000
C1927       C  0.97316571  0.72663103  0.38069517    -0.09600
C1928       C  0.95177745  0.74557457  0.38826162     0.06600
C1929       C  0.43311909  0.76504342  0.37948810    -0.03400
C1930       C  0.43572107  0.76510565  0.36340454    -0.07800
C1931       C  0.95739637  0.74679444  0.35577016     0.05700
C1932       C  0.97605444  0.72702523  0.36464087    -0.02900
Br1933     Br  0.00487738  0.69897465  0.35544556    -0.02600
H1934       H  0.98766281  0.71130929  0.38730841     0.09600
H1935       H  0.42168912  0.78083468  0.35677817     0.07600
Br1936     Br  0.40591010  0.79457112  0.38862738    -0.03000
C1937       C  0.44325211  0.86210659  0.31565383    -0.09600
C1938       C  0.47104582  0.84602227  0.31384470     0.06600
C1939       C  0.99850404  0.86343854  0.31386641    -0.03400
C1940       C  0.99756386  0.89551931  0.31447459    -0.07800
C1941       C  0.46993939  0.91114675  0.31520967     0.05700
C1942       C  0.44243055  0.89417496  0.31654744    -0.02900
Br1943     Br  0.40293026  0.91268272  0.32024897    -0.02600
H1944       H  0.42191485  0.84966245  0.31650839     0.09600
H1945       H  0.01900378  0.90796176  0.31413378     0.07600
Br1946     Br  0.03871523  0.84516492  0.31298239    -0.03000
C1947       C  0.44430591  0.61087354  0.30479309    -0.09600
C1948       C  0.46979671  0.59623492  0.31158326     0.06600
C1949       C  0.99366627  0.61506505  0.31773997    -0.03400
C1950       C  0.99229572  0.64695688  0.31616367    -0.07800
C1951       C  0.46698791  0.66115416  0.30907703     0.05700
C1952       C  0.44251013  0.64291545  0.30363718    -0.02900
Br1953     Br  0.40619473  0.65972583  0.29428766    -0.02600
H1954       H  0.42554803  0.59731006  0.30026262     0.09600
H1955       H  0.01077936  0.66049336  0.32099634     0.07600
Br1956     Br  0.02751850  0.59884096  0.32940361    -0.03000
C1957       C  0.00429666  0.51559610  0.25987018    -0.09600
C1958       C  0.98397557  0.99621224  0.26773042     0.06600
C1959       C  0.46927447  0.97250536  0.25936957    -0.03400
C1960       C  0.47428487  0.96927418  0.24354530    -0.07800
C1961       C  0.99378130  0.98893338  0.23572075     0.05700
C1962       C  0.00916788  0.51227251  0.24398983    -0.02900
Br1963     Br  0.03838494  0.53907218  0.23444253    -0.02600
H1964       H  0.01621662  0.53356113  0.26608517     0.09600
H1965       H  0.46264033  0.95105549  0.23738524     0.07600
Br1966     Br  0.44375306  0.94270052  0.26933692    -0.03000
C1967       C  0.48515497  0.50710362  0.36879141    -0.09600
C1968       C  0.95870404  0.00454643  0.35959310     0.06600
C1969       C  0.93018519  0.99903782  0.36685077    -0.03400
C1970       C  0.92861706  0.99668197  0.38292256    -0.07800
C1971       C  0.95489454  0.99960737  0.39224198     0.05700
C1972       C  0.48364379  0.50482269  0.38482875    -0.02900
Br1973     Br  0.52187280  0.50954348  0.39563583    -0.02600
H1974       H  0.50733961  0.51115417  0.36356606     0.09600
H1975       H  0.90652467  0.99217745  0.38814385     0.07600
Br1976     Br  0.89248028  0.99322815  0.35576897    -0.03000
C1977       C  0.26387479  0.81349641  0.86392906    -0.09600
C1978       C  0.24683939  0.78976506  0.85708261     0.06600
C1979       C  0.22952100  0.77017852  0.86664441    -0.03400
C1980       C  0.23051039  0.77373551  0.88265078    -0.07800
C1981       C  0.24819678  0.79686853  0.88953582     0.05700
C1982       C  0.26481344  0.81706534  0.87998830    -0.02900
Br1983     Br  0.29144875  0.84800911  0.88818908    -0.02600
H1984       H  0.27747070  0.82859159  0.85680473     0.09600
H1985       H  0.21720460  0.75836842  0.88977542     0.07600
Br1986     Br  0.20281364  0.73904764  0.85856410    -0.03000
C1987       C  0.23015538  0.93162012  0.86664311    -0.09600
C1988       C  0.24120775  0.45849322  0.85964798     0.06600
C1989       C  0.25175884  0.48241724  0.86937310    -0.03400
C1990       C  0.25038347  0.47934916  0.88540044    -0.07800
C1991       C  0.23888237  0.45275788  0.89244480     0.05700
C1992       C  0.22878124  0.92861179  0.88279171    -0.02900
Br1993     Br  0.21133356  0.89150107  0.89079266    -0.02600
H1994       H  0.22197437  0.91288405  0.85953103     0.09600
H1995       H  0.25878539  0.49808338  0.89245255     0.07600
Br1996     Br  0.26976430  0.51974005  0.86187489    -0.03000
C1997       C  0.36004222  0.75396788  0.82101314    -0.09600
C1998       C  0.34396988  0.77510329  0.81180427     0.06600
C1999       C  0.36077482  0.79539331  0.80239664    -0.03400
C2000       C  0.39280345  0.79484987  0.80270668    -0.07800
C2001       C  0.40889051  0.77395456  0.81198111     0.05700
C2002       C  0.39220115  0.75322972  0.82118748    -0.02900
Br2003     Br  0.41176404  0.72473098  0.83489491    -0.02600
H2004       H  0.34753085  0.73822278  0.82830974     0.09600
H2005       H  0.40527438  0.81046472  0.79531218     0.07600
Br2006     Br  0.34176930  0.82273148  0.78789714    -0.03000
C2007       C  0.14305525  0.80312252  0.80981281    -0.09600
C2008       C  0.15895339  0.77502389  0.80866372     0.06600
C2009       C  0.14176543  0.74785023  0.80652339    -0.03400
C2010       C  0.10970083  0.74919244  0.80615219    -0.07800
C2011       C  0.09371945  0.77715137  0.80767256     0.05700
C2012       C  0.11093520  0.80451374  0.80929778    -0.02900
Br2013     Br  0.09278459  0.84466395  0.81134680    -0.02600
H2014       H  0.15567040  0.82431778  0.81133271     0.09600
H2015       H  0.09716148  0.72796424  0.80460453     0.07600
Br2016     Br  0.15997832  0.70801452  0.80342902    -0.03000
C2017       C  0.01119109  0.81296584  0.86239518    -0.09600
C2018       C  0.00407774  0.78419065  0.85588319     0.06600
C2019       C  0.49770020  0.76278274  0.86617403    -0.03400
C2020       C  0.49819248  0.76768769  0.88208397    -0.07800
C2021       C  0.00500931  0.79290625  0.88846045     0.05700
C2022       C  0.01173123  0.81754140  0.87841970    -0.02900
Br2023     Br  0.02263666  0.85782533  0.88557145    -0.02600
H2024       H  0.01661771  0.83214206  0.85496971     0.09600
H2025       H  0.49246137  0.74858928  0.88950127     0.07600
Br2026     Br  0.48579884  0.72238417  0.85953486    -0.03000
C2027       C  0.35142700  0.48906384  0.82120952    -0.09600
C2028       C  0.33549036  0.96502947  0.81398770     0.06600
C2029       C  0.35261686  0.94091384  0.80716413    -0.03400
C2030       C  0.38473937  0.94148180  0.80754776    -0.07800
C2031       C  0.40067961  0.46583277  0.81447564     0.05700
C2032       C  0.38356927  0.48962258  0.82159310    -0.02900
Br2033     Br  0.40227315  0.52281513  0.83273880    -0.02600
H2034       H  0.33877622  0.50744578  0.82677511     0.09600
H2035       H  0.39734928  0.92305908  0.80199570     0.07600
Br2036     Br  0.33401104  0.90757773  0.79610640    -0.03000
C2037       C  0.13413074  0.48599067  0.82168086    -0.09600
C2038       C  0.15050718  0.96838901  0.81092267     0.06600
C2039       C  0.13416998  0.95080646  0.79999767    -0.03400
C2040       C  0.10199631  0.95071593  0.80018337    -0.07800
C2041       C  0.08563777  0.46817222  0.81102802     0.05700
C2042       C  0.10202054  0.48587989  0.82188460    -0.02900
Br2043     Br  0.08190500  0.50830357  0.83808520    -0.02600
H2044       H  0.14638187  0.49928347  0.83026665     0.09600
H2045       H  0.08971078  0.93729610  0.79166291     0.07600
Br2046     Br  0.15455764  0.92815970  0.78396957    -0.03000
C2047       C  0.00966443  0.48233087  0.86705672    -0.09600
C2048       C  0.99628400  0.95871338  0.85834119     0.06600
C2049       C  0.48167733  0.93150781  0.86623192    -0.03400
C2050       C  0.48076610  0.93092884  0.88239917    -0.07800
C2051       C  0.99407208  0.95807126  0.89111647     0.05700
C2052       C  0.00906981  0.48206848  0.88318655    -0.02900
Br2053     Br  0.03072015  0.51451909  0.89351680    -0.02600
H2054       H  0.02087247  0.50121449  0.86126728     0.09600
H2055       H  0.46884433  0.91234826  0.88808035     0.07600
Br2056     Br  0.46093195  0.89907660  0.85547969    -0.03000
C2057       C  0.28205722  0.73271235  0.74388217    -0.09600
C2058       C  0.26422167  0.74945072  0.73334897     0.06600
C2059       C  0.24260245  0.77093071  0.73909402    -0.03400
C2060       C  0.23994932  0.77586647  0.75501440    -0.07800
C2061       C  0.25782175  0.75908944  0.76551757     0.05700
C2062       C  0.27875295  0.73699105  0.75978890    -0.02900
Br2063     Br  0.30494566  0.71330633  0.77305532    -0.02600
H2064       H  0.29880526  0.71620033  0.73970530     0.09600
H2065       H  0.22370520  0.79284795  0.75922045     0.07600
Br2066     Br  0.21736498  0.79560872  0.72582580    -0.03000
C2067       C  0.32096867  0.75722854  0.63559281    -0.09600
C2068       C  0.29735943  0.73922893  0.64190044     0.06600
C2069       C  0.27895992  0.72167502  0.63183637    -0.03400
C2070       C  0.28403582  0.72269406  0.61593316    -0.07800
C2071       C  0.30715768  0.74112772  0.60954829     0.05700
C2072       C  0.32563260  0.75870599  0.61958314    -0.02900
Br2073     Br  0.35512115  0.78757291  0.61205574    -0.02600
H2074       H  0.33500270  0.77127180  0.64310212     0.09600
H2075       H  0.26964027  0.70893457  0.60845906     0.07600
Br2076     Br  0.24720424  0.69488387  0.63909900    -0.03000
C2077       C  0.30688728  0.88399218  0.69233695    -0.09600
C2078       C  0.28028376  0.89961095  0.68749818     0.06600
C2079       C  0.25477104  0.88222366  0.68252576    -0.03400
C2080       C  0.25642675  0.85022766  0.68251321    -0.07800
C2081       C  0.28296999  0.83458281  0.68736755     0.05700
C2082       C  0.30849461  0.85194500  0.69238939    -0.02900
Br2083     Br  0.34613163  0.83423681  0.69992026    -0.02600
H2084       H  0.32667016  0.89677114  0.69631269     0.09600
H2085       H  0.23656096  0.83749256  0.67860712     0.07600
Br2086     Br  0.21686057  0.89980894  0.67530541    -0.03000
C2087       C  0.25224613  0.60030271  0.69012102    -0.09600
C2088       C  0.28046801  0.58453593  0.68984430     0.06600
C2089       C  0.30782514  0.60177897  0.68892879    -0.03400
C2090       C  0.30639897  0.63380856  0.68855833    -0.07800
C2091       C  0.27822872  0.64964365  0.68893392     0.05700
C2092       C  0.25080661  0.63239035  0.68968235    -0.02900
Br2093     Br  0.21048222  0.65042857  0.69050176    -0.02600
H2094       H  0.23094624  0.58758308  0.69077626     0.09600
H2095       H  0.32773663  0.64641919  0.68779284     0.07600
Br2096     Br  0.34806263  0.58372229  0.68741134    -0.03000
C2097       C  0.26857135  0.95641075  0.75875762    -0.09600
C2098       C  0.24871365  0.47648325  0.76665267     0.06600
C2099       C  0.23362564  0.49978092  0.75814376    -0.03400
C2100       C  0.23939910  0.50311549  0.74227269    -0.07800
C2101       C  0.26043982  0.48383774  0.73462126     0.05700
C2102       C  0.27455982  0.95993347  0.74300239    -0.02900
Br2103     Br  0.30105156  0.93029498  0.73333898    -0.02600
H2104       H  0.28004813  0.93812308  0.76496716     0.09600
H2105       H  0.22777662  0.52115060  0.73594439     0.07600
Br2106     Br  0.20381217  0.52664575  0.76739824    -0.03000
C2107       C  0.32586083  0.98123570  0.63753083    -0.09600
C2108       C  0.29986843  0.99632447  0.64363914     0.06600
C2109       C  0.28020067  0.51205160  0.63340847    -0.03400
C2110       C  0.28559684  0.51099791  0.61754857    -0.07800
C2111       C  0.31078128  0.99502990  0.61130504     0.05700
C2112       C  0.33145756  0.98047281  0.62154238    -0.02900
Br2113     Br  0.36619952  0.95725204  0.61437807    -0.02600
H2114       H  0.34138525  0.96914612  0.64517131     0.09600
H2115       H  0.26986443  0.52299507  0.60998094     0.07600
Br2116     Br  0.24636469  0.53693160  0.64029557    -0.03000
C2117       C  0.47073638  0.78532028  0.75608839    -0.09600
C2118       C  0.99203210  0.76462611  0.76338869     0.06600
C2119       C  0.00678201  0.74142598  0.75468426    -0.03400
C2120       C  0.00032115  0.73816306  0.73892894    -0.07800
C2121       C  0.97903407  0.75746650  0.73154366     0.05700
C2122       C  0.46404437  0.78176372  0.74038951    -0.02900
Br2123     Br  0.43728205  0.81144060  0.73099039    -0.02600
H2124       H  0.45951360  0.80360326  0.76247534     0.09600
H2125       H  0.01203566  0.72040902  0.73239076     0.07600
Br2126     Br  0.03747522  0.71492237  0.76340546    -0.03000
C2127       C  0.96970818  0.76785816  0.61395734    -0.09600
C2128       C  0.94529285  0.75216033  0.60695651     0.06600
C2129       C  0.42419508  0.73680553  0.61661787    -0.03400
C2130       C  0.42768525  0.73744144  0.63272568    -0.07800
C2131       C  0.95277077  0.75214201  0.63949187     0.05700
C2132       C  0.97361517  0.76802607  0.62994167    -0.02900
Br2133     Br  0.00723163  0.79176259  0.63788128    -0.02600
H2134       H  0.98597160  0.78027450  0.60691043     0.09600
H2135       H  0.41149039  0.72501306  0.63979654     0.07600
Br2136     Br  0.39218297  0.71164887  0.60822435    -0.03000
C2137       C  0.99050010  0.89255922  0.69083991    -0.09600
C2138       C  0.96467115  0.90857593  0.68540441     0.06600
C2139       C  0.43876350  0.89242505  0.68035900    -0.03400
C2140       C  0.43959286  0.86030067  0.68040264    -0.07800
C2141       C  0.46545077  0.84422139  0.68579810     0.05700
C2142       C  0.99134809  0.86049159  0.69100361    -0.02900
Br2143     Br  0.02672641  0.84152757  0.70023718    -0.02600
H2144       H  0.00993562  0.90507200  0.69541663     0.09600
H2145       H  0.41999328  0.84781145  0.67598812     0.07600
Br2146     Br  0.40279725  0.91168896  0.67185063    -0.03000
C2147       C  0.43892165  0.60933957  0.68599400    -0.09600
C2148       C  0.96653979  0.59351385  0.68961485     0.06600
C2149       C  0.99318368  0.61124731  0.69218287    -0.03400
C2150       C  0.99177280  0.64329489  0.69102413    -0.07800
C2151       C  0.46401043  0.65916013  0.68740306     0.05700
C2152       C  0.43744548  0.64137344  0.68476530    -0.02900
Br2153     Br  0.39889792  0.65880881  0.67838116    -0.02600
H2154       H  0.41838285  0.59616993  0.68367538     0.09600
H2155       H  0.01241710  0.65641295  0.69321917     0.07600
Br2156     Br  0.03209219  0.59369547  0.69785402    -0.03000
C2157       C  0.45969777  0.96931623  0.74179796    -0.09600
C2158       C  0.47868520  0.49059150  0.73429244     0.06600
C2159       C  0.00177198  0.50483636  0.74253381    -0.03400
C2160       C  0.00491583  0.49909940  0.75834310    -0.07800
C2161       C  0.98628154  0.97757122  0.76583957     0.05700
C2162       C  0.46375366  0.96237224  0.75744895    -0.02900
Br2163     Br  0.43676700  0.93268687  0.76648074    -0.02600
H2164       H  0.44188594  0.95758723  0.73539454     0.09600
H2165       H  0.02219610  0.51144855  0.76481956     0.07600
Br2166     Br  0.02899702  0.53423879  0.73348737    -0.03000
C2167       C  0.42517986  0.51532223  0.61859102    -0.09600
C2168       C  0.94964734  0.00436151  0.60935428     0.06600
C2169       C  0.97630684  0.99324834  0.61679707    -0.03400
C2170       C  0.97839606  0.99404367  0.63285747    -0.07800
C2171       C  0.45404083  0.50526311  0.64220941     0.05700
C2172       C  0.42712275  0.51589386  0.63474471    -0.02900
Br2173     Br  0.39253037  0.53254106  0.64568325    -0.02600
H2174       H  0.40452404  0.52389881  0.61311955     0.09600
H2175       H  0.99899165  0.98506359  0.63822117     0.07600
Br2176     Br  0.01003992  0.97455374  0.60597028    -0.03000
O2177       O  0.49650733  0.49899732  0.70849202    -0.72200
O2178       O  0.48449677  0.00272478  0.66511599    -0.72500
O2179       O  0.49100222  0.04470571  0.68756774    -0.72300
O2180       O  0.48970188  0.45750714  0.68592264    -0.72300
O2181       O  0.94036022  0.45771047  0.68780836    -0.72300
O2182       O  0.94202100  0.04456523  0.69177360    -0.72300
O2183       O  0.93545174  0.50504469  0.66818449    -0.72300
O2184       O  0.94718178  0.99644687  0.71151457    -0.72400
V2185       V  0.48947225  0.00108343  0.68684856     1.35200
V2186       V  0.94218552  0.00103964  0.68979548     1.35200
C2187       C  0.97392921  0.99547792  0.71724227     0.77000
C2188       C  0.95810040  0.00454540  0.65908842     0.77000
C2189       C  0.46666994  0.05994648  0.68988761     0.76900
C2190       C  0.46459048  0.44307820  0.68658413     0.76900
O2191       O  0.94668336  0.25447695  0.70913367    -0.72200
O2192       O  0.93425895  0.24971250  0.66560162    -0.72500
O2193       O  0.93998620  0.20819122  0.68853658    -0.72300
O2194       O  0.94070870  0.29527824  0.68631992    -0.72300
O2195       O  0.48963555  0.29491671  0.68439389    -0.72300
O2196       O  0.48848596  0.20774848  0.68425178    -0.72300
O2197       O  0.48318477  0.25168745  0.66260606    -0.72300
O2198       O  0.49518727  0.25139411  0.70594611    -0.72400
V2199       V  0.94131917  0.25176299  0.68733110     1.35200
V2200       V  0.48814027  0.25137976  0.68433756     1.35200
C2201       C  0.47274062  0.25446243  0.71503725     0.77000
C2202       C  0.45662348  0.25143123  0.65672882     0.77000
C2203       C  0.96423206  0.19265791  0.68648881     0.76900
C2204       C  0.96574606  0.30967356  0.68524451     0.76900
O2205       O  0.81389255  0.99352199  0.67023779    -0.72200
O2206       O  0.79471613  0.48835310  0.71302848    -0.72500
O2207       O  0.80442753  0.44778374  0.69038881    -0.72300
O2208       O  0.80403380  0.03466897  0.69286855    -0.72300
O2209       O  0.75567642  0.03542184  0.68706672    -0.72300
O2210       O  0.75568773  0.44844448  0.68549563    -0.72300
O2211       O  0.74602785  0.99024385  0.70776402    -0.72300
O2212       O  0.76523712  0.49348135  0.66495913    -0.72400
V2213       V  0.80331967  0.49119202  0.69155678     1.35200
V2214       V  0.75659417  0.49189593  0.68642512     1.35200
C2215       C  0.79272184  0.49443545  0.66025484     0.77000
C2216       C  0.76717896  0.48768301  0.71767555     0.77000
C2217       C  0.78001759  0.43318356  0.68761415     0.76900
C2218       C  0.78004100  0.05000263  0.68998008     0.76900
O2219       O  0.74821132  0.24576018  0.70693214    -0.72200
O2220       O  0.76410579  0.23973487  0.66391220    -0.72500
O2221       O  0.75450059  0.19906809  0.68659687    -0.72300
O2222       O  0.75789964  0.28588864  0.68431392    -0.72300
O2223       O  0.80637287  0.28447386  0.68981235    -0.72300
O2224       O  0.80368066  0.19751664  0.69016450    -0.72300
O2225       O  0.81311264  0.24039716  0.66834357    -0.72300
O2226       O  0.79703881  0.24202652  0.71153367    -0.72400
V2227       V  0.75712027  0.24251201  0.68551086     1.35200
V2228       V  0.80412441  0.24104548  0.68987274     1.35200
C2229       C  0.76997140  0.24551705  0.71657747     0.77000
C2230       C  0.79126156  0.23948148  0.65873692     0.77000
C2231       C  0.77857754  0.18332830  0.68860843     0.76900
C2232       C  0.78256269  0.30011695  0.68705693     0.76900
O2233       O  0.99164890  0.99673507  0.79148321    -0.72200
O2234       O  0.49444948  0.98599065  0.83544840    -0.72500
O2235       O  0.53660380  0.99138273  0.81320251    -0.72300
O2236       O  0.94957417  0.99208806  0.81402372    -0.72300
O2237       O  0.94978550  0.44236274  0.81217164    -0.72300
O2238       O  0.53711225  0.44203453  0.80935272    -0.72300
O2239       O  0.99627184  0.43823974  0.83247098    -0.72300
O2240       O  0.49018290  0.44668499  0.78895668    -0.72400
V2241       V  0.49313301  0.99012891  0.81365090     1.35200
V2242       V  0.49337529  0.44252146  0.81078664     1.35200
C2243       C  0.48971154  0.47323529  0.78303618     0.77000
C2244       C  0.49556288  0.45947633  0.84146468     0.77000
C2245       C  0.55174029  0.96688256  0.81124879     0.76900
C2246       C  0.93476336  0.96720055  0.81359861     0.76900
O2247       O  0.99711722  0.29461946  0.78642008    -0.72200
O2248       O  0.50258462  0.30640011  0.83002294    -0.72500
O2249       O  0.54355375  0.30266885  0.80684812    -0.72300
O2250       O  0.95670036  0.29801336  0.80950280    -0.72300
O2251       O  0.95845650  0.24845192  0.81206487    -0.72300
O2252       O  0.54557445  0.25327477  0.80957433    -0.72300
O2253       O  0.00434676  0.25446337  0.83246134    -0.72300
O2254       O  0.49918781  0.24662738  0.78926480    -0.72400
V2255       V  0.50005510  0.30030316  0.80828271     1.35200
V2256       V  0.50208377  0.25278618  0.81095566     1.35200
C2257       C  0.49647283  0.26958224  0.78045370     0.77000
C2258       C  0.50405163  0.28336032  0.83887416     0.77000
C2259       C  0.55954969  0.27848964  0.80793728     0.76900
C2260       C  0.94273588  0.27287099  0.81122691     0.76900
O2261       O  0.74064917  0.43972611  0.83357045    -0.72200
O2262       O  0.74551058  0.44690850  0.78968993    -0.72500
O2263       O  0.78635766  0.44250999  0.81272280    -0.72300
O2264       O  0.69946824  0.44361846  0.81028488    -0.72300
O2265       O  0.69933811  0.99313425  0.81348898    -0.72300
O2266       O  0.78687253  0.99227032  0.81386210    -0.72300
O2267       O  0.74342478  0.99656836  0.79181659    -0.72300
O2268       O  0.74276614  0.98927067  0.83546918    -0.72400
V2269       V  0.74293244  0.44414001  0.81162306     1.35200
V2270       V  0.74307518  0.99185589  0.81362703     1.35200
C2271       C  0.74165391  0.96346108  0.84207770     0.77000
C2272       C  0.74514661  0.97306283  0.78326630     0.77000
C2273       C  0.80157519  0.46709709  0.81333194     0.76900
C2274       C  0.68455366  0.46844560  0.81149016     0.76900
O2275       O  0.74872005  0.25777753  0.83464423    -0.72200
O2276       O  0.75396639  0.24399469  0.79161630    -0.72500
O2277       O  0.79486959  0.25072502  0.81433923    -0.72300
O2278       O  0.70779085  0.25146324  0.81181170    -0.72300
O2279       O  0.70818213  0.30077823  0.80861462    -0.72300
O2280       O  0.79526020  0.29969311  0.80978466    -0.72300
O2281       O  0.75292004  0.29315272  0.78753328    -0.72300
O2282       O  0.75073401  0.30703185  0.83104878    -0.72400
V2283       V  0.75130149  0.25198608  0.81305170     1.35200
V2284       V  0.75175451  0.29926596  0.80934679     1.35200
C2285       C  0.74884468  0.28457163  0.84025374     0.77000
C2286       C  0.75466104  0.26605389  0.78221336     0.77000
C2287       C  0.80996729  0.27502172  0.81199307     0.76900
C2288       C  0.69303009  0.27615581  0.80969267     0.76900
O2289       O  0.94008729  0.00646062  0.33338856    -0.72200
O2290       O  0.95226257  0.50113732  0.29004446    -0.72500
O2291       O  0.94575862  0.46086943  0.31290406    -0.72300
O2292       O  0.94608642  0.04754439  0.31049156    -0.72300
O2293       O  0.49511417  0.04736843  0.31443816    -0.72300
O2294       O  0.49532849  0.45998201  0.31564593    -0.72300
O2295       O  0.50158521  0.00237889  0.29337462    -0.72300
O2296       O  0.48947971  0.50472606  0.33663850    -0.72400
V2297       V  0.94703519  0.50412553  0.31176117     1.35200
V2298       V  0.49447062  0.50369329  0.31495807     1.35200
C2299       C  0.46285428  0.50514885  0.34243352     0.77000
C2300       C  0.47903868  0.50015260  0.28432914     0.77000
C2301       C  0.97016530  0.44567759  0.31472939     0.76900
C2302       C  0.97053299  0.06261840  0.31234418     0.76900
O2303       O  0.93840053  0.25212806  0.33002598    -0.72200
O2304       O  0.94943697  0.25809018  0.28653442    -0.72500
O2305       O  0.94295397  0.21129319  0.30689880    -0.72300
O2306       O  0.94496376  0.29853838  0.30993902    -0.72300
O2307       O  0.49426608  0.29598500  0.31335501    -0.72300
O2308       O  0.49217533  0.20943297  0.30986620    -0.72300
O2309       O  0.49872235  0.25600824  0.28986769    -0.72300
O2310       O  0.48777238  0.24917665  0.33310535    -0.72400
V2311       V  0.94484596  0.25494686  0.30835675     1.35200
V2312       V  0.49223043  0.25271741  0.31144579     1.35200
C2313       C  0.46127007  0.24904240  0.33901233     0.77000
C2314       C  0.47602605  0.25834949  0.28084949     0.77000
C2315       C  0.96734138  0.19565215  0.30829773     0.76900
C2316       C  0.97004031  0.31245216  0.31221890     0.76900
O2317       O  0.81206402  0.50383540  0.33466542    -0.72200
O2318       O  0.80133249  0.99908881  0.29114961    -0.72500
O2319       O  0.80833813  0.04505319  0.31166509    -0.72300
O2320       O  0.80553576  0.45836084  0.31398838    -0.72300
O2321       O  0.75606525  0.45996860  0.31625028    -0.72300
O2322       O  0.75907001  0.04744251  0.31520631    -0.72300
O2323       O  0.75199207  0.50279543  0.29417829    -0.72300
O2324       O  0.76261005  0.00440393  0.33751567    -0.72400
V2325       V  0.80586216  0.00170931  0.31293152     1.35200
V2326       V  0.75838071  0.00368636  0.31576562     1.35200
C2327       C  0.78902072  0.00389025  0.34353493     0.77000
C2328       C  0.77471937  0.99975817  0.28529374     0.77000
C2329       C  0.78432312  0.06111838  0.31308972     0.76900
C2330       C  0.78041643  0.44415956  0.31517585     0.76900
O2331       O  0.75542322  0.25342585  0.29116516    -0.72200
O2332       O  0.76630306  0.25041111  0.33468435    -0.72500
O2333       O  0.76013473  0.29536731  0.31383229    -0.72300
O2334       O  0.76141340  0.20830924  0.31199668    -0.72300
O2335       O  0.81073261  0.20888739  0.30847400    -0.72300
O2336       O  0.80956777  0.29595853  0.31144458    -0.72300
O2337       O  0.81568698  0.24984670  0.33172641    -0.72300
O2338       O  0.80484173  0.25575327  0.28818342    -0.72400
V2339       V  0.76179297  0.25182143  0.31286753     1.35200
V2340       V  0.80926988  0.25250950  0.30999663     1.35200
C2341       C  0.77826242  0.25592662  0.28227152     0.77000
C2342       C  0.79278341  0.25016119  0.34070347     0.77000
C2343       C  0.78470621  0.31064357  0.31306430     0.76900
C2344       C  0.78615749  0.19372243  0.30980273     0.76900
O2345       O  0.91570799  0.99607615  0.45894953    -0.72200
O2346       O  0.92522182  0.49512765  0.41539515    -0.72500
O2347       O  0.92045596  0.45156725  0.43736147    -0.72300
O2348       O  0.92093429  0.03915315  0.43696412    -0.72300
O2349       O  0.47004420  0.03853295  0.44100890    -0.72300
O2350       O  0.47062351  0.45162696  0.43839303    -0.72300
O2351       O  0.47472972  0.99765210  0.41804483    -0.72300
O2352       O  0.46535754  0.49247874  0.46146900    -0.72400
V2353       V  0.92145627  0.49539745  0.43721985     1.35200
V2354       V  0.46921213  0.49507410  0.43970665     1.35200
C2355       C  0.43901712  0.49395736  0.46756573     0.77000
C2356       C  0.45173143  0.49718428  0.40919294     0.77000
C2357       C  0.94547009  0.43663927  0.43774137     0.76900
C2358       C  0.94566510  0.05374167  0.43914433     0.76900
O2359       O  0.92400939  0.24519995  0.45637928    -0.72200
O2360       O  0.92549444  0.24679555  0.41254444    -0.72500
O2361       O  0.92380284  0.20228267  0.43409749    -0.72300
O2362       O  0.92522015  0.28926471  0.43503243    -0.72300
O2363       O  0.47531443  0.28848538  0.43428997    -0.72300
O2364       O  0.47338238  0.20094113  0.43595012    -0.72300
O2365       O  0.47526486  0.24291771  0.41319610    -0.72300
O2366       O  0.47389851  0.24633614  0.45693309    -0.72400
V2367       V  0.92561063  0.24580373  0.43449588     1.35200
V2368       V  0.47354421  0.24468988  0.43505582     1.35200
C2369       C  0.44879153  0.24608373  0.46421466     0.77000
C2370       C  0.45076489  0.24506699  0.40544678     0.77000
C2371       C  0.94823216  0.18670148  0.43512967     0.76900
C2372       C  0.95021498  0.30382465  0.43471355     0.76900
O2373       O  0.83153771  0.99941300  0.41631452    -0.72200
O2374       O  0.83836971  0.49628162  0.46011982    -0.72500
O2375       O  0.83452603  0.45411808  0.43746415    -0.72300
O2376       O  0.83551488  0.04126323  0.43891738    -0.72300
O2377       O  0.78572091  0.04190694  0.43947615    -0.72300
O2378       O  0.78516598  0.45472278  0.44068729    -0.72300
O2379       O  0.78878985  0.99960952  0.46185995    -0.72300
O2380       O  0.78192752  0.49727964  0.41831976    -0.72400
V2381       V  0.83406403  0.49772539  0.43823211     1.35200
V2382       V  0.78637177  0.49832830  0.44005739     1.35200
C2383       C  0.80543853  0.49906226  0.40984801     0.77000
C2384       C  0.81461558  0.49824896  0.46847728     0.77000
C2385       C  0.80974222  0.43947627  0.43918017     0.76900
C2386       C  0.81076336  0.05648739  0.43919742     0.76900
O2387       O  0.78766450  0.24715268  0.45948052    -0.72200
O2388       O  0.78378428  0.24925154  0.41571911    -0.72500
O2389       O  0.78520043  0.20460368  0.43706332    -0.72300
O2390       O  0.78629125  0.29179067  0.43819235    -0.72300
O2391       O  0.83600832  0.29098161  0.43682607    -0.72300
O2392       O  0.83496254  0.20375649  0.43617468    -0.72300
O2393       O  0.83346149  0.24790015  0.41446659    -0.72300
O2394       O  0.83741675  0.24645767  0.45844030    -0.72400
V2395       V  0.78671992  0.24817920  0.43757837     1.35200
V2396       V  0.83451424  0.24734277  0.43649064     1.35200
C2397       C  0.81315421  0.24615297  0.46646645     0.77000
C2398       C  0.80785168  0.24870029  0.40755271     0.77000
C2399       C  0.80987873  0.18927403  0.43654223     0.76900
C2400       C  0.81133637  0.30631463  0.43758878     0.76900
O2401       O  0.49229834  0.43174969  0.04281394    -0.72200
O2402       O  0.99652811  0.43876726  0.08648136    -0.72500
O2403       O  0.95096763  0.43587276  0.06555923    -0.72300
O2404       O  0.53810970  0.43569895  0.06373872    -0.72300
O2405       O  0.53696575  0.98532607  0.06206753    -0.72300
O2406       O  0.95033312  0.98562188  0.06406847    -0.72300
O2407       O  0.49552648  0.98753349  0.08490473    -0.72300
O2408       O  0.99183976  0.98365676  0.04141102    -0.72400
V2409       V  0.99444174  0.43726064  0.06450426     1.35200
V2410       V  0.99382581  0.98505790  0.06324546     1.35200
C2411       C  0.99084479  0.95809931  0.03445048     0.77000
C2412       C  0.99638021  0.96459167  0.09328321     0.77000
C2413       C  0.93578225  0.46062842  0.06508196     0.76900
C2414       C  0.55253171  0.46071295  0.06268732     0.76900
O2415       O  0.00432047  0.32145189  0.03910227    -0.72200
O2416       O  0.50752167  0.31947732  0.08307857    -0.72500
O2417       O  0.54986664  0.32023944  0.06044579    -0.72300
O2418       O  0.96259035  0.32130218  0.06184168    -0.72300
O2419       O  0.96177059  0.27151200  0.06118804    -0.72300
O2420       O  0.54892865  0.27044288  0.05956186    -0.72300
O2421       O  0.00687373  0.26969837  0.08214974    -0.72300
O2422       O  0.50380816  0.27298105  0.03834401    -0.72400
V2423       V  0.50617897  0.32014248  0.06115429     1.35200
V2424       V  0.50536196  0.27231497  0.06022387     1.35200
C2425       C  0.50329030  0.29840531  0.03133629     0.77000
C2426       C  0.50725369  0.29405487  0.09009337     0.77000
C2427       C  0.56432182  0.29497906  0.05993614     0.76900
C2428       C  0.94725288  0.29671453  0.06172583     0.76900
O2429       O  0.74416650  0.44345309  0.08764862    -0.72200
O2430       O  0.74440564  0.43653493  0.04383448    -0.72500
O2431       O  0.78785329  0.43924285  0.06587097    -0.72300
O2432       O  0.70078939  0.44059755  0.06554733    -0.72300
O2433       O  0.70116527  0.99021867  0.06408244    -0.72300
O2434       O  0.78832620  0.98881829  0.06351492    -0.72300
O2435       O  0.74393184  0.98618189  0.04203046    -0.72300
O2436       O  0.74547415  0.99298219  0.08568780    -0.72400
V2437       V  0.74431456  0.44090650  0.06570878     1.35200
V2438       V  0.74474987  0.98858879  0.06388743     1.35200
C2439       C  0.74510406  0.96946646  0.09419408     0.77000
C2440       C  0.74383817  0.96024050  0.03541412     0.77000
C2441       C  0.80299292  0.46379324  0.06452792     0.76900
C2442       C  0.68597868  0.46558938  0.06461785     0.76900
O2443       O  0.75339425  0.26711633  0.08250655    -0.72200
O2444       O  0.75823679  0.27248372  0.03898442    -0.72500
O2445       O  0.79944483  0.26973371  0.06198390    -0.72300
O2446       O  0.71221418  0.27025155  0.05957476    -0.72300
O2447       O  0.71215284  0.31996840  0.06154818    -0.72300
O2448       O  0.79921201  0.31953804  0.06297543    -0.72300
O2449       O  0.75693306  0.32224738  0.04037090    -0.72300
O2450       O  0.75437878  0.31680125  0.08425266    -0.72400
V2451       V  0.75581860  0.27088014  0.06078220     1.35200
V2452       V  0.75569030  0.31869051  0.06227520     1.35200
C2453       C  0.75306903  0.29090012  0.09086512     0.77000
C2454       C  0.75828491  0.29812833  0.03220276     0.77000
C2455       C  0.81423203  0.29463109  0.06284969     0.76900
C2456       C  0.69731156  0.29525129  0.06014352     0.76900
O2457       O  0.00034811  0.99916365  0.16656512    -0.72200
O2458       O  0.49873198  0.00915090  0.21001438    -0.72500
O2459       O  0.54328971  0.00366231  0.18889589    -0.72300
O2460       O  0.95601772  0.00439633  0.18792133    -0.72300
O2461       O  0.95568353  0.45474111  0.18958014    -0.72300
O2462       O  0.54243170  0.45442800  0.19222678    -0.72300
O2463       O  0.99625959  0.45898076  0.21263448    -0.72300
O2464       O  0.50138282  0.45031000  0.16903817    -0.72400
V2465       V  0.49970460  0.00351724  0.18830279     1.35200
V2466       V  0.49896815  0.45595937  0.19076338     1.35200
C2467       C  0.50123574  0.47345172  0.16026627     0.77000
C2468       C  0.49668546  0.48601147  0.21870758     0.77000
C2469       C  0.55781991  0.97880776  0.19106890     0.76900
C2470       C  0.94090969  0.97969569  0.18872076     0.76900
O2471       O  0.00861878  0.30619578  0.16551684    -0.72200
O2472       O  0.50023052  0.29819158  0.20914429    -0.72500
O2473       O  0.54828296  0.30251164  0.18934069    -0.72300
O2474       O  0.96145714  0.30204475  0.18531520    -0.72300
O2475       O  0.96239700  0.25229091  0.18422825    -0.72300
O2476       O  0.54942058  0.25311408  0.18610136    -0.72300
O2477       O  0.00387288  0.24903493  0.20693324    -0.72300
O2478       O  0.50748168  0.25616456  0.16349239    -0.72400
V2479       V  0.50469071  0.30102131  0.18734918     1.35200
V2480       V  0.50589696  0.25334287  0.18529172     1.35200
C2481       C  0.50844734  0.28210277  0.15701643     0.77000
C2482       C  0.50025149  0.27203424  0.21547696     0.77000
C2483       C  0.56380584  0.27798558  0.18808541     0.76900
C2484       C  0.94703105  0.27698739  0.18431383     0.76900
O2485       O  0.75434950  0.46209392  0.21340467    -0.72200
O2486       O  0.74593411  0.45419814  0.16998275    -0.72500
O2487       O  0.79323840  0.45839327  0.18969298    -0.72300
O2488       O  0.70653216  0.45796948  0.19383153    -0.72300
O2489       O  0.70557074  0.00722331  0.19052607    -0.72300
O2490       O  0.79263635  0.00812155  0.18860870    -0.72300
O2491       O  0.74726615  0.00367120  0.16773920    -0.72300
O2492       O  0.75103850  0.01166528  0.21132478    -0.72400
V2493       V  0.74992499  0.45910741  0.19167919     1.35200
V2494       V  0.74909589  0.00673011  0.18958217     1.35200
C2495       C  0.75407370  0.98823177  0.21976913     0.77000
C2496       C  0.74584140  0.97752802  0.16134729     0.77000
C2497       C  0.80784940  0.48335815  0.18873145     0.76900
C2498       C  0.69110397  0.48256909  0.19275438     0.76900
O2499       O  0.75716167  0.24477807  0.20747541    -0.72200
O2500       O  0.75396904  0.25382692  0.16380768    -0.72500
O2501       O  0.79898383  0.24861577  0.18486182    -0.72300
O2502       O  0.71188907  0.24996095  0.18632995    -0.72300
O2503       O  0.71248703  0.29941058  0.18932514    -0.72300
O2504       O  0.79962697  0.29822435  0.18712373    -0.72300
O2505       O  0.75412311  0.30335349  0.16650194    -0.72300
O2506       O  0.75876650  0.29430828  0.21006823    -0.72400
V2507       V  0.75545379  0.25024891  0.18568991     1.35200
V2508       V  0.75614331  0.29785717  0.18822354     1.35200
C2509       C  0.75920976  0.26798067  0.21623390     0.77000
C2510       C  0.75390888  0.28019979  0.15767465     0.77000
C2511       C  0.81421165  0.27319849  0.18572425     0.76900
C2512       C  0.69722339  0.27490351  0.18781258     0.76900
O2513       O  0.99094785  0.98275873  0.91582202    -0.72200
O2514       O  0.48654597  0.97896871  0.95953253    -0.72500
O2515       O  0.53121076  0.97836735  0.93831528    -0.72300
O2516       O  0.94468440  0.98460245  0.93649428    -0.72300
O2517       O  0.94319315  0.43481754  0.93738971    -0.72300
O2518       O  0.53119225  0.42853757  0.93891853    -0.72300
O2519       O  0.98590232  0.43337439  0.95970212    -0.72300
O2520       O  0.49007587  0.42883978  0.91575835    -0.72400
V2521       V  0.48771214  0.97781733  0.93772883     1.35200
V2522       V  0.48755279  0.42986826  0.93775343     1.35200
C2523       C  0.49102357  0.45386602  0.90833968     0.77000
C2524       C  0.48546278  0.45434160  0.96724140     0.77000
C2525       C  0.54611587  0.95345417  0.93896738     0.76900
C2526       C  0.92901927  0.96025717  0.93695384     0.76900
O2527       O  0.00496520  0.32124678  0.91257057    -0.72200
O2528       O  0.50085457  0.32893369  0.95662089    -0.72500
O2529       O  0.54645705  0.32646809  0.93587484    -0.72300
O2530       O  0.95931656  0.32356725  0.93337161    -0.72300
O2531       O  0.95881629  0.27393430  0.93477439    -0.72300
O2532       O  0.54553469  0.27664550  0.93651648    -0.72300
O2533       O  0.00091906  0.27533098  0.95734830    -0.72300
O2534       O  0.50363623  0.27557784  0.91384220    -0.72400
V2535       V  0.50291268  0.32630287  0.93466268     1.35200
V2536       V  0.50194058  0.27849256  0.93557131     1.35200
C2537       C  0.50485175  0.29955175  0.90569138     0.77000
C2538       C  0.50016348  0.30448514  0.96449985     0.77000
C2539       C  0.56086224  0.30128135  0.93671962     0.76900
C2540       C  0.94406882  0.29899298  0.93387665     0.76900
O2541       O  0.73841719  0.43157208  0.96096795    -0.72200
O2542       O  0.73979067  0.43072775  0.91690964    -0.72500
O2543       O  0.78264579  0.43301937  0.93943180    -0.72300
O2544       O  0.69552073  0.42915221  0.93858583    -0.72300
O2545       O  0.69321544  0.97888550  0.93881518    -0.72300
O2546       O  0.78033652  0.98282673  0.93869043    -0.72300
O2547       O  0.73670757  0.98042517  0.91686839    -0.72300
O2548       O  0.73685193  0.98132000  0.96064484    -0.72400
V2549       V  0.73905331  0.43205582  0.93895567     1.35200
V2550       V  0.73679838  0.97987136  0.93875805     1.35200
C2551       C  0.73745368  0.95671409  0.96834685     0.77000
C2552       C  0.73831489  0.95553798  0.90933236     0.77000
C2553       C  0.79636973  0.45855704  0.93926697     0.76900
C2554       C  0.67943900  0.45338093  0.93861220     0.76900
O2555       O  0.75426807  0.27450271  0.95834102    -0.72200
O2556       O  0.74984093  0.27168344  0.91459999    -0.72500
O2557       O  0.79548981  0.27274047  0.93537280    -0.72300
O2558       O  0.70859020  0.27316292  0.93745934    -0.72300
O2559       O  0.70838374  0.32298567  0.93642910    -0.72300
O2560       O  0.79566821  0.32247467  0.93499551    -0.72300
O2561       O  0.75081089  0.32150723  0.91384958    -0.72300
O2562       O  0.75330445  0.32432146  0.95761914    -0.72400
V2563       V  0.75204023  0.27400316  0.93645079     1.35200
V2564       V  0.75203197  0.32187360  0.93575039     1.35200
C2565       C  0.75422982  0.29991477  0.96546433     0.77000
C2566       C  0.75002021  0.29613156  0.90674800     0.77000
C2567       C  0.81054167  0.29741358  0.93471041     0.76900
C2568       C  0.69361550  0.29804159  0.93703810     0.76900
O2569       O  0.92039222  0.00254156  0.58593262    -0.72200
O2570       O  0.91297341  0.50178325  0.54217945    -0.72500
O2571       O  0.91834754  0.45842486  0.56407555    -0.72300
O2572       O  0.91493646  0.04578824  0.56396954    -0.72300
O2573       O  0.46459367  0.04720897  0.56098266    -0.72300
O2574       O  0.46784222  0.46003443  0.56269208    -0.72300
O2575       O  0.46279469  0.00133245  0.54023934    -0.72300
O2576       O  0.46977821  0.50550178  0.58376892    -0.72400
V2577       V  0.91758860  0.50216692  0.56401156     1.35200
V2578       V  0.46526356  0.50357794  0.56201280     1.35200
C2579       C  0.44641426  0.50408190  0.59236969     0.77000
C2580       C  0.43678358  0.50094641  0.53379525     0.77000
C2581       C  0.94378748  0.44435380  0.56321293     0.76900
C2582       C  0.93905792  0.06142913  0.56218959     0.76900
O2583       O  0.91840870  0.25237662  0.58257506    -0.72200
O2584       O  0.91778972  0.25415178  0.53845525    -0.72500
O2585       O  0.91632131  0.20984317  0.56012307    -0.72300
O2586       O  0.91911760  0.29684528  0.56115990    -0.72300
O2587       O  0.46879780  0.29579415  0.56049969    -0.72300
O2588       O  0.46650432  0.20820138  0.56030137    -0.72300
O2589       O  0.46764950  0.25174199  0.53861376    -0.72300
O2590       O  0.46832598  0.25205788  0.58225675    -0.72400
V2591       V  0.91885688  0.25332667  0.56053147     1.35200
V2592       V  0.46683185  0.25197579  0.56042908     1.35200
C2593       C  0.44376649  0.25204340  0.59000164     0.77000
C2594       C  0.44286270  0.25273024  0.53107458     0.77000
C2595       C  0.94071163  0.19409444  0.55995939     0.76900
C2596       C  0.94427117  0.31115526  0.56122946     0.76900
O2597       O  0.84225641  0.99185060  0.54320005    -0.72200
O2598       O  0.83888067  0.49270216  0.58720540    -0.72500
O2599       O  0.83983741  0.44853661  0.56526607    -0.72300
O2600       O  0.84112465  0.03616322  0.56496316    -0.72300
O2601       O  0.79129314  0.03671252  0.56436800    -0.72300
O2602       O  0.79005832  0.44975149  0.56413581    -0.72300
O2603       O  0.78911425  0.99330624  0.58600082    -0.72300
O2604       O  0.79253899  0.49355678  0.54232884    -0.72400
V2605       V  0.83964839  0.49231824  0.56514923     1.35200
V2606       V  0.79181144  0.49325142  0.56420662     1.35200
C2607       C  0.81792667  0.49289188  0.53526530     0.77000
C2608       C  0.81325811  0.49326678  0.59410656     0.77000
C2609       C  0.81457728  0.43426064  0.56482798     0.76900
C2610       C  0.81624488  0.05132465  0.56476301     0.76900
O2611       O  0.83794032  0.24212537  0.54129101    -0.72200
O2612       O  0.83511134  0.24344973  0.58546441    -0.72500
O2613       O  0.83735721  0.19922507  0.56354599    -0.72300
O2614       O  0.83667514  0.28624484  0.56303565    -0.72300
O2615       O  0.78686231  0.28644042  0.56310240    -0.72300
O2616       O  0.78757886  0.19867955  0.56217704    -0.72300
O2617       O  0.78539595  0.24149267  0.58435961    -0.72300
O2618       O  0.78818151  0.24351993  0.54077715    -0.72400
V2619       V  0.83582200  0.24274269  0.56334300     1.35200
V2620       V  0.78798627  0.24254384  0.56260558     1.35200
C2621       C  0.81328810  0.24330836  0.53351623     0.77000
C2622       C  0.80950972  0.24229237  0.59241879     0.77000
C2623       C  0.81276939  0.18406450  0.56276102     0.76900
C2624       C  0.81184303  0.30128132  0.56295023     0.76900
C2625       C  0.83582990  0.38420512  0.55623893    -0.09600
C2626       C  0.81368473  0.40031007  0.56472113     0.06600
C2627       C  0.79063788  0.38364987  0.57246306    -0.03400
C2628       C  0.79001932  0.35151122  0.57148035    -0.07800
C2629       C  0.81222861  0.33535434  0.56298848     0.05700
C2630       C  0.83510296  0.35218013  0.55519497    -0.02900
Br2631     Br  0.86497193  0.33329630  0.54214498    -0.02600
H2632       H  0.85342780  0.39667205  0.55004897     0.09600
H2633       H  0.77252902  0.33903832  0.57773128     0.07600
Br2634     Br  0.76078661  0.40327416  0.58545607    -0.03000
C2635       C  0.83635340  0.10118314  0.55516709    -0.09600
C2636       C  0.81595692  0.08528820  0.56474173     0.06600
C2637       C  0.79447905  0.10213879  0.57356544    -0.03400
C2638       C  0.79336311  0.13420891  0.57250899    -0.07800
C2639       C  0.81364646  0.15010671  0.56290087     0.05700
C2640       C  0.83523986  0.13329888  0.55412383    -0.02900
Br2641     Br  0.86205943  0.15280820  0.53963257    -0.02600
H2642       H  0.85266231  0.08854846  0.54817588     0.09600
H2643       H  0.77707974  0.14683747  0.57951624     0.07600
Br2644     Br  0.76747715  0.08278204  0.58803149    -0.03000
C2645       C  0.42261086  0.39380461  0.57106411    -0.09600
C2646       C  0.94492881  0.41030378  0.56280327     0.06600
C2647       C  0.96727343  0.39389601  0.55426318    -0.03400
C2648       C  0.96701739  0.36167385  0.55409530    -0.07800
C2649       C  0.94467201  0.34517984  0.56221885     0.05700
C2650       C  0.42257605  0.36166511  0.57102475    -0.02900
Br2651     Br  0.39351692  0.34172746  0.58420659    -0.02600
H2652       H  0.40573630  0.40595435  0.57794636     0.09600
H2653       H  0.98390492  0.34946967  0.54725910     0.07600
Br2654     Br  0.99729913  0.41393909  0.54165139    -0.03000
C2655       C  0.45794308  0.11044297  0.55115319    -0.09600
C2656       C  0.93798131  0.09537283  0.56138762     0.06600
C2657       C  0.91846283  0.11315080  0.57087687    -0.03400
C2658       C  0.91925705  0.14528690  0.57002992    -0.07800
C2659       C  0.93936342  0.16021099  0.55990048     0.05700
C2660       C  0.45857546  0.14253173  0.55027643    -0.02900
Br2661     Br  0.48369200  0.16095359  0.53470532    -0.02600
H2662       H  0.47248818  0.09714076  0.54351926     0.09600
H2663       H  0.90467561  0.15869662  0.57760382     0.07600
Br2664     Br  0.89212005  0.09508634  0.58605186    -0.03000
C2665       C  0.86031681  0.32501695  0.93617771    -0.09600
C2666       C  0.84466159  0.29725675  0.93383264     0.06600
C2667       C  0.86213368  0.27035710  0.93088547    -0.03400
C2668       C  0.89424559  0.27166977  0.93085845    -0.07800
C2669       C  0.90989344  0.29933640  0.93352961     0.05700
C2670       C  0.89237830  0.32633608  0.93604522    -0.02900
Br2671     Br  0.91008040  0.36583051  0.94001148    -0.02600
H2672       H  0.84756736  0.34597669  0.93839197     0.09600
H2673       H  0.90707023  0.25074936  0.92865491     0.07600
Br2674     Br  0.84434261  0.23102417  0.92633476    -0.03000
C2675       C  0.64418641  0.32150503  0.94517373    -0.09600
C2676       C  0.65970131  0.29803389  0.93725726     0.06600
C2677       C  0.64244242  0.27533836  0.92953843    -0.03400
C2678       C  0.61036690  0.27657529  0.92983440    -0.07800
C2679       C  0.59480267  0.30040748  0.93747463     0.05700
C2680       C  0.61209759  0.32293384  0.94532473    -0.02900
Br2681     Br  0.59362863  0.35544625  0.95702884    -0.02600
H2682       H  0.65713283  0.33884973  0.95134479     0.09600
H2683       H  0.59748975  0.25926470  0.92361131     0.07600
Br2684     Br  0.66108463  0.24350983  0.91733397    -0.03000
C2685       C  0.88009470  0.44049040  0.94745343    -0.09600
C2686       C  0.89506391  0.96121726  0.93767958     0.06600
C2687       C  0.87730547  0.98244659  0.92920008    -0.03400
C2688       C  0.84518615  0.98164380  0.93011837    -0.07800
C2689       C  0.83027110  0.45998734  0.93941484     0.05700
C2690       C  0.84806872  0.43976387  0.94842950    -0.02900
Br2691     Br  0.83008662  0.41223234  0.96309806    -0.02600
H2692       H  0.89342069  0.42515537  0.95464854     0.09600
H2693       H  0.83180746  0.99750343  0.92322485     0.07600
Br2694     Br  0.89537312  0.01193058  0.91559007    -0.03000
C2695       C  0.62924688  0.97802843  0.94441067    -0.09600
C2696       C  0.64535166  0.45236795  0.93873141     0.06600
C2697       C  0.62840769  0.42680366  0.93341077    -0.03400
C2698       C  0.59624918  0.42746678  0.93387741    -0.07800
C2699       C  0.58018564  0.95333870  0.93941766     0.05700
C2700       C  0.59718377  0.97875674  0.94483846    -0.02900
Br2701     Br  0.57854231  0.01478988  0.95368563    -0.02600
H2702       H  0.64173478  0.99773300  0.94873840     0.09600
H2703       H  0.58368715  0.40784716  0.92951448     0.07600
Br2704     Br  0.64729300  0.39113437  0.92437230    -0.03000
C2705       C  0.89817777  0.24929715  0.18871487    -0.09600
C2706       C  0.91305110  0.27614893  0.18383002     0.06600
C2707       C  0.89503655  0.30147815  0.17910190    -0.03400
C2708       C  0.86302510  0.29977496  0.17977641    -0.07800
C2709       C  0.84817102  0.27313783  0.18494435     0.05700
C2710       C  0.86617001  0.24756449  0.18935363    -0.02900
Br2711     Br  0.84905542  0.21024224  0.19733442    -0.02600
H2712       H  0.91153065  0.22967117  0.19247680     0.09600
H2713       H  0.84963339  0.31942951  0.17608545     0.07600
Br2714     Br  0.91219692  0.33863379  0.17095279    -0.03000
C2715       C  0.61350112  0.25445599  0.18037989    -0.09600
C2716       C  0.59793909  0.27793452  0.18834032     0.06600
C2717       C  0.61541638  0.30044088  0.19610403    -0.03400
C2718       C  0.64759124  0.29915595  0.19565464    -0.07800
C2719       C  0.66310512  0.27550110  0.18777378     0.05700
C2720       C  0.64557016  0.25306966  0.17997063    -0.02900
Br2721     Br  0.66353864  0.22089516  0.16770155    -0.02600
H2722       H  0.60059264  0.23718154  0.17414867     0.09600
H2723       H  0.66057895  0.31647664  0.20180528     0.07600
Br2724     Br  0.59704849  0.33221305  0.20841359    -0.03000
C2725       C  0.89150014  0.00605845  0.18277941    -0.09600
C2726       C  0.90687153  0.98017317  0.18867087     0.06600
C2727       C  0.88926685  0.45565991  0.19455695    -0.03400
C2728       C  0.85726758  0.45729698  0.19420054    -0.07800
C2729       C  0.84186718  0.48310330  0.18830052     0.05700
C2730       C  0.85940208  0.00776655  0.18253349    -0.02900
Br2731     Br  0.84141500  0.04391173  0.17357351    -0.02600
H2732       H  0.90453493  0.02509342  0.17817101     0.09600
H2733       H  0.84429999  0.43834100  0.19894016     0.07600
Br2734     Br  0.90681703  0.41995154  0.20419014    -0.03000
C2735       C  0.60693670  0.00711043  0.19405658    -0.09600
C2736       C  0.59189149  0.97879750  0.19235757     0.06600
C2737       C  0.60989440  0.45169660  0.19197555    -0.03400
C2738       C  0.64193803  0.45360909  0.19251780    -0.07800
C2739       C  0.65699511  0.48204255  0.19356198     0.05700
C2740       C  0.63893980  0.00898746  0.19479595    -0.02900
Br2741     Br  0.65578064  0.04924595  0.19800845    -0.02600
H2742       H  0.59369578  0.02819164  0.19487450     0.09600
H2743       H  0.65519135  0.43252594  0.19177034     0.07600
Br2744     Br  0.59299544  0.41115131  0.19017095    -0.03000
C2745       C  0.74184302  0.32237138  0.00751855    -0.09600
C2746       C  0.75902349  0.29963455  0.01513571     0.06600
C2747       C  0.77530790  0.27780867  0.00623594    -0.03400
C2748       C  0.77336232  0.27842409  0.99015535    -0.07800
C2749       C  0.75578668  0.30079609  0.98252809     0.05700
C2750       C  0.74006595  0.32311880  0.99139350    -0.02900
Br2751     Br  0.71378242  0.35359894  0.98228990    -0.02600
H2752       H  0.72888611  0.33904321  0.01414418     0.09600
H2753       H  0.78601520  0.26147868  0.98355237     0.07600
Br2754     Br  0.80194335  0.24753347  0.01526012    -0.03000
C2755       C  0.76612521  0.31110760  0.11696428    -0.09600
C2756       C  0.75196104  0.28839237  0.10795041     0.06600
C2757       C  0.73788297  0.26336975  0.11549783    -0.03400
C2758       C  0.73901582  0.26112817  0.13159332    -0.07800
C2759       C  0.75342210  0.28371361  0.14061161     0.05700
C2760       C  0.76704752  0.30900005  0.13306839    -0.02900
Br2761     Br  0.78913433  0.34048530  0.14387223    -0.02600
H2762       H  0.77726951  0.33035494  0.11142692     0.09600
H2763       H  0.72798513  0.24180540  0.13712413     0.07600
Br2764     Br  0.71488716  0.23252882  0.10467797    -0.03000
C2765       C  0.72915326  0.98301459  0.01019850    -0.09600
C2766       C  0.74214254  0.95822069  0.01828291     0.06600
C2767       C  0.75275699  0.43254746  0.00978303    -0.03400
C2768       C  0.75049083  0.43231922  0.99363588    -0.07800
C2769       C  0.73782740  0.95736007  0.98554188     0.05700
C2770       C  0.72671012  0.98274380  0.99411537    -0.02900
Br2771     Br  0.70635277  0.01735180  0.98488735    -0.02600
H2772       H  0.72037206  0.00261703  0.01642008     0.09600
H2773       H  0.75933946  0.41281082  0.98739114     0.07600
Br2774     Br  0.77236336  0.39783351  0.01926422    -0.03000
C2775       C  0.73798195  0.94613243  0.12022787    -0.09600
C2776       C  0.74542503  0.97207557  0.11136820     0.06600
C2777       C  0.75286650  0.49964066  0.11922862    -0.03400
C2778       C  0.75233733  0.50070452  0.13534776    -0.07800
C2779       C  0.74493539  0.97476617  0.14420051     0.05700
C2780       C  0.73767425  0.94714592  0.13637542    -0.02900
Br2781     Br  0.72630348  0.90991817  0.14671465    -0.02600
H2782       H  0.73209416  0.92477002  0.11456474     0.09600
H2783       H  0.75839289  0.52204151  0.14099283     0.07600
Br2784     Br  0.76551749  0.53659273  0.10901830    -0.03000
C2785       C  0.86351310  0.32026522  0.05677140    -0.09600
C2786       C  0.84824095  0.29505415  0.06323390     0.06600
C2787       C  0.86584118  0.27109196  0.06974615    -0.03400
C2788       C  0.89794347  0.27213114  0.06906487    -0.07800
C2789       C  0.91322790  0.29710348  0.06233352     0.05700
C2790       C  0.89557045  0.32157834  0.05630874    -0.02900
Br2791     Br  0.91332123  0.35677854  0.04651291    -0.02600
H2792       H  0.85041116  0.33892965  0.05175733     0.09600
H2793       H  0.91105973  0.25351005  0.07410680     0.07600
Br2794     Br  0.84768110  0.23756734  0.08075395    -0.03000
C2795       C  0.61427655  0.31780739  0.05219262    -0.09600
C2796       C  0.59835634  0.29428794  0.05976454     0.06600
C2797       C  0.61536598  0.27089167  0.06715081    -0.03400
C2798       C  0.64747531  0.27145666  0.06684968    -0.07800
C2799       C  0.66335951  0.29533950  0.05958094     0.05700
C2800       C  0.64641858  0.31874161  0.05216625    -0.02900
Br2801     Br  0.66566160  0.35168179  0.04114666    -0.02600
H2802       H  0.60162708  0.33533598  0.04604932     0.09600
H2803       H  0.66013583  0.25352215  0.07274053     0.07600
Br2804     Br  0.59640885  0.23865111  0.07875802    -0.03000
C2805       C  0.48751257  0.27881300  0.98922296    -0.09600
C2806       C  0.49953388  0.30461429  0.98163674     0.06600
C2807       C  0.01079017  0.32608155  0.99041948    -0.03400
C2808       C  0.01159886  0.32400053  0.00650124    -0.07800
C2809       C  0.50136398  0.29993464  0.01426091     0.05700
C2810       C  0.48806572  0.27636117  0.00528514    -0.02900
Br2811     Br  0.46899016  0.24074505  0.01405269    -0.02600
H2812       H  0.47741147  0.26031664  0.98260362     0.09600
H2813       H  0.02113861  0.34293323  0.01301044     0.07600
Br2814     Br  0.02664301  0.36304274  0.98154850    -0.03000
C2815       C  0.00404570  0.31429729  0.13303912    -0.09600
C2816       C  0.50895027  0.28491018  0.13987344     0.06600
C2817       C  0.51354193  0.25937655  0.12998543    -0.03400
C2818       C  0.51311133  0.26327988  0.11401108    -0.07800
C2819       C  0.50779155  0.29210718  0.10725177     0.05700
C2820       C  0.00318202  0.31798075  0.11698975    -0.02900
Br2821     Br  0.99302701  0.35820162  0.10946601    -0.02600
H2822       H  0.99978680  0.33416475  0.14025406     0.09600
H2823       H  0.51696418  0.24331873  0.10680487     0.07600
Br2824     Br  0.52078975  0.21818275  0.13707514    -0.03000
C2825       C  0.88649042  0.98441864  0.05735273    -0.09600
C2826       C  0.90184543  0.46068966  0.06516624     0.06600
C2827       C  0.88441785  0.43773431  0.07251829    -0.03400
C2828       C  0.85230968  0.43911365  0.07205914    -0.07800
C2829       C  0.83696616  0.46306951  0.06436839     0.05700
C2830       C  0.85445771  0.98562520  0.05675661    -0.02900
Br2831     Br  0.83648112  0.01749800  0.04438764    -0.02600
H2832       H  0.89941575  0.00172712  0.05138397     0.09600
H2833       H  0.83936121  0.42171273  0.07794422     0.07600
Br2834     Br  0.90267069  0.40485984  0.08411765    -0.03000
C2835       C  0.60155054  0.99017971  0.06311823    -0.09600
C2836       C  0.58671025  0.46153430  0.06257015     0.06600
C2837       C  0.60502129  0.43463002  0.06235848    -0.03400
C2838       C  0.63696921  0.43682968  0.06304949    -0.07800
C2839       C  0.65182808  0.46538100  0.06390987     0.05700
C2840       C  0.63359909  0.99239420  0.06377570    -0.02900
Br2841     Br  0.65016066  0.03322042  0.06467704    -0.02600
H2842       H  0.58815313  0.01117655  0.06322502     0.09600
H2843       H  0.65027580  0.41577446  0.06288547     0.07600
Br2844     Br  0.58870126  0.39382590  0.06106223    -0.03000
C2845       C  0.99298556  0.98470468  0.00911718    -0.09600
C2846       C  0.98841772  0.95723062  0.01725447     0.06600
C2847       C  0.48049947  0.42740522  0.00898638    -0.03400
C2848       C  0.47955599  0.42799737  0.99279589    -0.07800
C2849       C  0.48504709  0.45516634  0.98449354     0.05700
C2850       C  0.99149504  0.98591449  0.99303706    -0.02900
Br2851     Br  0.99831318  0.02561804  0.98404430    -0.02600
H2852       H  0.99803304  0.00571157  0.01530952     0.09600
H2853       H  0.47409905  0.40703050  0.98667138     0.07600
Br2854     Br  0.46986037  0.38948116  0.01874082    -0.03000
C2855       C  0.98840137  0.99428462  0.13455506    -0.09600
C2856       C  0.50077231  0.47023767  0.14316222     0.06600
C2857       C  0.51076915  0.44346329  0.13532190    -0.03400
C2858       C  0.50932948  0.44204131  0.11918454    -0.07800
C2859       C  0.99730157  0.96680054  0.11043486     0.05700
C2860       C  0.98632763  0.99291731  0.11848313    -0.02900
Br2861     Br  0.96626095  0.02691317  0.10855408    -0.02600
H2862       H  0.97964982  0.01452248  0.14037928     0.09600
H2863       H  0.51782510  0.42167173  0.11341808     0.07600
Br2864     Br  0.52755900  0.40828792  0.14570899    -0.03000
C2865       C  0.79128343  0.26091036  0.49191091    -0.09600
C2866       C  0.81411513  0.24518023  0.48360524     0.06600
C2867       C  0.83673499  0.22870047  0.49188798    -0.03400
C2868       C  0.83621153  0.22843841  0.50807658    -0.07800
C2869       C  0.81346937  0.24442832  0.51636811     0.05700
C2870       C  0.79088689  0.26089972  0.50803649    -0.02900
Br2871     Br  0.75984297  0.28553910  0.51786826    -0.02600
H2872       H  0.77385709  0.27385309  0.48581013     0.09600
H2873       H  0.85351390  0.21539940  0.51420884     0.07600
Br2874     Br  0.86760484  0.20436041  0.48179980    -0.03000
C2875       C  0.78808104  0.35582574  0.44600400    -0.09600
C2876       C  0.81148569  0.34035367  0.43797304     0.06600
C2877       C  0.83420740  0.35780920  0.43047056    -0.03400
C2878       C  0.83314932  0.38989321  0.43111022    -0.07800
C2879       C  0.80974512  0.40540860  0.43911370     0.05700
C2880       C  0.78712222  0.38794935  0.44674428    -0.02900
Br2881     Br  0.75537464  0.40612792  0.45915643    -0.02600
H2882       H  0.77065308  0.34282291  0.45200395     0.09600
H2883       H  0.85059966  0.40281921  0.42508235     0.07600
Br2884     Br  0.86611959  0.33961194  0.41826429    -0.03000
C2885       C  0.78610353  0.10576531  0.43180300    -0.09600
C2886       C  0.81085918  0.09044521  0.43879099     0.06600
C2887       C  0.83505433  0.10792826  0.44506928    -0.03400
C2888       C  0.83444367  0.13995461  0.44390357    -0.07800
C2889       C  0.80971726  0.15529622  0.43688355     0.05700
C2890       C  0.78526310  0.13781837  0.43083017    -0.02900
Br2891     Br  0.75070726  0.15590727  0.42046011    -0.02600
H2892       H  0.76739791  0.09270306  0.42686479     0.09600
H2893       H  0.85307770  0.15300494  0.44892578     0.07600
Br2894     Br  0.86806094  0.08987796  0.45664365    -0.03000
C2895       C  0.83943004  0.48087003  0.49297395    -0.09600
C2896       C  0.81666365  0.49844885  0.48556182     0.06600
C2897       C  0.79523381  0.01476530  0.49469891    -0.03400
C2898       C  0.79632979  0.01258311  0.51075247    -0.07800
C2899       C  0.81858589  0.49449792  0.51817678     0.05700
C2900       C  0.84030338  0.47847247  0.50910444    -0.02900
Br2901     Br  0.86941704  0.45042490  0.51794531    -0.02600
H2902       H  0.85584688  0.46792877  0.48618811     0.09600
H2903       H  0.77976429  0.02541174  0.51750218     0.07600
Br2904     Br  0.76475198  0.04175550  0.48609234    -0.03000
C2905       C  0.46902939  0.23696966  0.50674809    -0.09600
C2906       C  0.44378915  0.25139977  0.51391308     0.06600
C2907       C  0.92056429  0.26412713  0.50430100    -0.03400
C2908       C  0.92275394  0.26187743  0.48826988    -0.07800
C2909       C  0.44793852  0.24741446  0.48129417     0.05700
C2910       C  0.47129557  0.23485563  0.49067597    -0.02900
Br2911     Br  0.50605432  0.21308928  0.48243208    -0.02600
H2912       H  0.48702000  0.22682203  0.51369375     0.09600
H2913       H  0.90485525  0.27209088  0.48127823     0.07600
Br2914     Br  0.88648792  0.28685894  0.51216603    -0.03000
C2915       C  0.46992599  0.38813891  0.42841103    -0.09600
C2916       C  0.94624567  0.40267950  0.43708917     0.06600
C2917       C  0.92487218  0.38444940  0.44505084    -0.03400
C2918       C  0.92684928  0.35240424  0.44414475    -0.07800
C2919       C  0.94983978  0.33782036  0.43539295     0.05700
C2920       C  0.47171618  0.35604454  0.42741877    -0.02900
Br2921     Br  0.50239432  0.33862930  0.41411695    -0.02600
H2922       H  0.48638345  0.40183637  0.42211275     0.09600
H2923       H  0.91039190  0.33874536  0.45046979     0.07600
Br2924     Br  0.89385921  0.40183352  0.45817406    -0.03000
C2925       C  0.92426736  0.10329032  0.42976874    -0.09600
C2926       C  0.94624252  0.08781179  0.43871653     0.06600
C2927       C  0.46855493  0.10525171  0.44652256    -0.03400
C2928       C  0.46899921  0.13727169  0.44502885    -0.07800
C2929       C  0.94725389  0.15269743  0.43598356     0.05700
C2930       C  0.92438390  0.13531317  0.42845302    -0.02900
Br2931     Br  0.89353953  0.15346473  0.41552780    -0.02600
H2932       H  0.90696045  0.09035984  0.42358846     0.09600
H2933       H  0.48626282  0.15023815  0.45122032     0.07600
Br2934     Br  0.49810094  0.08717098  0.46024116    -0.03000
C2935       C  0.91895826  0.51740294  0.49183337    -0.09600
C2936       C  0.43566328  0.49386401  0.48447612     0.06600
C2937       C  0.45036584  0.97138246  0.49352604    -0.03400
C2938       C  0.45007281  0.97395558  0.50957242    -0.07800
C2939       C  0.43470320  0.49836819  0.51689163     0.05700
C2940       C  0.91845989  0.51982059  0.50793790    -0.02900
Br2941     Br  0.89776400  0.55429435  0.51710190    -0.02600
H2942       H  0.90744813  0.53475654  0.48498331     0.09600
H2943       H  0.46179313  0.95671870  0.51640439     0.07600
Br2944     Br  0.46982995  0.93602841  0.48451415    -0.03000
C2945       C  0.75471585  0.23828417  0.25762165    -0.09600
C2946       C  0.77379958  0.25909477  0.26539782     0.06600
C2947       C  0.78751240  0.28303581  0.25696337    -0.03400
C2948       C  0.78190006  0.28583103  0.24110742    -0.07800
C2949       C  0.76330412  0.26462355  0.23320310     0.05700
C2950       C  0.74977159  0.24052902  0.24168314    -0.02900
Br2951     Br  0.72328866  0.21065751  0.23237132    -0.02600
H2952       H  0.74385874  0.21991695  0.26396185     0.09600
H2953       H  0.79256503  0.30445508  0.23487754     0.07600
Br2954     Br  0.81291550  0.31340741  0.26666539    -0.03000
C2955       C  0.82360649  0.23771888  0.36436180    -0.09600
C2956       C  0.79688929  0.25045760  0.35779793     0.06600
C2957       C  0.77475351  0.26354384  0.36778365    -0.03400
C2958       C  0.77909661  0.26270963  0.38376070    -0.07800
C2959       C  0.80543645  0.24945845  0.39037994     0.05700
C2960       C  0.82800456  0.23700855  0.38041114    -0.02900
Br2961     Br  0.86435074  0.21689087  0.38785069    -0.02600
H2962       H  0.84098788  0.22762677  0.35697078     0.09600
H2963       H  0.76171667  0.27296195  0.39109791     0.07600
Br2964     Br  0.73885219  0.28479860  0.36050746    -0.03000
C2965       C  0.80887851  0.39466730  0.31505683    -0.09600
C2966       C  0.78037179  0.40995854  0.31508908     0.06600
C2967       C  0.75334376  0.39208589  0.31458100    -0.03400
C2968       C  0.75546930  0.35997747  0.31409016    -0.07800
C2969       C  0.78404401  0.34477153  0.31392711     0.05700
C2970       C  0.81101900  0.36268313  0.31444319    -0.02900
Br2971     Br  0.85182627  0.34572830  0.31439110    -0.02600
H2972       H  0.82998634  0.40768739  0.31542378     0.09600
H2973       H  0.73442794  0.34683690  0.31363055     0.07600
Br2974     Br  0.71269523  0.40933487  0.31403338    -0.03000
C2975       C  0.76133085  0.11072391  0.30484279    -0.09600
C2976       C  0.78566264  0.09499413  0.31195684     0.06600
C2977       C  0.81097093  0.11195089  0.31750881    -0.03400
C2978       C  0.81116162  0.14398246  0.31616173    -0.07800
C2979       C  0.78640910  0.15975415  0.30945498     0.05700
C2980       C  0.76162509  0.14273627  0.30342464    -0.02900
Br2981     Br  0.72845186  0.16166481  0.29232397    -0.02600
H2982       H  0.74215416  0.09799082  0.30012951     0.09600
H2983       H  0.83030328  0.15672252  0.32090530     0.07600
Br2984     Br  0.84485113  0.09315981  0.32813616    -0.03000
C2985       C  0.77983334  0.47190544  0.24392034    -0.09600
C2986       C  0.75846865  0.99122389  0.23659393     0.06600
C2987       C  0.74230435  0.01312098  0.24547098    -0.03400
C2988       C  0.74799177  0.01556490  0.26129440    -0.07800
C2989       C  0.76995123  0.99680187  0.26851788     0.05700
C2990       C  0.78576565  0.47458243  0.25970180    -0.02900
Br2991     Br  0.81407080  0.44589047  0.26874659    -0.02600
H2992       H  0.79222139  0.45475694  0.23729111     0.09600
H2993       H  0.73522976  0.03231788  0.26800025     0.07600
Br2994     Br  0.71091965  0.03894947  0.23684845    -0.03000
C2995       C  0.77709611  0.98552956  0.38595253    -0.09600
C2996       C  0.80201993  0.50058794  0.39284661     0.06600
C2997       C  0.82216121  0.51752672  0.38339719    -0.03400
C2998       C  0.81752935  0.51833983  0.36741014    -0.07800
C2999       C  0.79281768  0.00289969  0.36051691     0.05700
C3000       C  0.77232536  0.98652262  0.37002692    -0.02900
Br3001     Br  0.73821742  0.96358966  0.36203512    -0.02600
H3002       H  0.76130445  0.97255098  0.39298897     0.09600
H3003       H  0.83295913  0.53169009  0.36035564     0.07600
Br3004     Br  0.85475594  0.54213063  0.39168082    -0.03000
C3005       C  0.50700683  0.24745430  0.25733416    -0.09600
C3006       C  0.48111628  0.26165367  0.26397687     0.06600
C3007       C  0.96194075  0.28015170  0.25435380    -0.03400
C3008       C  0.96905487  0.28386495  0.23870742    -0.07800
C3009       C  0.49461825  0.26879658  0.23221276     0.05700
C3010       C  0.51360964  0.25055048  0.24162555    -0.02900
Br3011     Br  0.54970744  0.23062678  0.23374048    -0.02600
H3012       H  0.52221862  0.23367792  0.26440519     0.09600
H3013       H  0.95417042  0.29789154  0.23157794     0.07600
Br3014     Br  0.92648220  0.30154108  0.26206243    -0.03000
C3015       C  0.47300636  0.22607901  0.38081571    -0.09600
C3016       C  0.45189064  0.24532967  0.38838091     0.06600
C3017       C  0.93294719  0.26507390  0.37936407    -0.03400
C3018       C  0.93559381  0.26524095  0.36327966    -0.07800
C3019       C  0.45737244  0.24632937  0.35588753     0.05700
C3020       C  0.47581809  0.22635882  0.36475572    -0.02900
Br3021     Br  0.50421428  0.19789775  0.35554428    -0.02600
H3022       H  0.48733930  0.21061077  0.38743305     0.09600
H3023       H  0.92137714  0.28081519  0.35666020     0.07600
Br3024     Br  0.90535028  0.29423041  0.38851501    -0.03000
C3025       C  0.94295266  0.36255233  0.31504582    -0.09600
C3026       C  0.97086076  0.34647120  0.31373422     0.06600
C3027       C  0.49875675  0.36296596  0.31349096    -0.03400
C3028       C  0.49786080  0.39505747  0.31404298    -0.07800
C3029       C  0.96965514  0.41159796  0.31522982     0.05700
C3030       C  0.94205921  0.39461251  0.31599151    -0.02900
Br3031     Br  0.90225674  0.41305280  0.31887033    -0.02600
H3032       H  0.92156050  0.35011682  0.31544274     0.09600
H3033       H  0.51925884  0.40750298  0.31330901     0.07600
Br3034     Br  0.53885733  0.34462757  0.31193845    -0.03000
C3035       C  0.94458477  0.11130876  0.30469687    -0.09600
C3036       C  0.96992345  0.09668611  0.31163165     0.06600
C3037       C  0.49358103  0.11458970  0.31759871    -0.03400
C3038       C  0.49216719  0.14648091  0.31607304    -0.07800
C3039       C  0.96722634  0.16158834  0.30902067     0.05700
C3040       C  0.94284269  0.14333855  0.30348710    -0.02900
Br3041     Br  0.90673484  0.16011657  0.29392424    -0.02600
H3042       H  0.92590487  0.09773837  0.30008984     0.09600
H3043       H  0.51073729  0.15998813  0.32084171     0.07600
Br3044     Br  0.52768645  0.09835419  0.32907430    -0.03000
C3045       C  0.50418293  0.01574000  0.25982627    -0.09600
C3046       C  0.48391555  0.49623189  0.26762030     0.06600
C3047       C  0.96952462  0.47226406  0.25959317    -0.03400
C3048       C  0.97451495  0.46879561  0.24376920    -0.07800
C3049       C  0.49363778  0.48951122  0.23560231     0.05700
C3050       C  0.50899881  0.01271234  0.24393251    -0.02900
Br3051     Br  0.53805205  0.03979661  0.23446213    -0.02600
H3052       H  0.51612243  0.03359111  0.26611416     0.09600
H3053       H  0.96291834  0.45044731  0.23768457     0.07600
Br3054     Br  0.94428853  0.44243301  0.26972110    -0.03000
C3055       C  0.98490900  0.00761736  0.36892013    -0.09600
C3056       C  0.45892121  0.50410871  0.35947982     0.06600
C3057       C  0.43038010  0.49879808  0.36675281    -0.03400
C3058       C  0.42882025  0.49655938  0.38282719    -0.07800
C3059       C  0.45512239  0.49942535  0.39213476     0.05700
C3060       C  0.98339372  0.00520553  0.38495350    -0.02900
Br3061     Br  0.02158604  0.01003528  0.39578304    -0.02600
H3062       H  0.00707759  0.01181710  0.36370829     0.09600
H3063       H  0.40670575  0.49222055  0.38806120     0.07600
Br3064     Br  0.39260753  0.49318335  0.35569815    -0.03000
C3065       C  0.76515855  0.31192655  0.86424533    -0.09600
C3066       C  0.74727600  0.28906986  0.85718794     0.06600
C3067       C  0.72942183  0.26963586  0.86657987    -0.03400
C3068       C  0.73060774  0.27249147  0.88261616    -0.07800
C3069       C  0.74899425  0.29481265  0.88970006     0.05700
C3070       C  0.76626261  0.31483763  0.88034306    -0.02900
Br3071     Br  0.79382147  0.34470229  0.88888237    -0.02600
H3072       H  0.77921571  0.32683618  0.85724980     0.09600
H3073       H  0.71680681  0.25731348  0.88960391     0.07600
Br3074     Br  0.70165598  0.23975312  0.85821359    -0.03000
C3075       C  0.73096512  0.43426704  0.86648509    -0.09600
C3076       C  0.74146957  0.96124785  0.85931313     0.06600
C3077       C  0.75129749  0.98573651  0.86888968    -0.03400
C3078       C  0.75003092  0.98298772  0.88493876    -0.07800
C3079       C  0.73924840  0.95624200  0.89211271     0.05700
C3080       C  0.72957727  0.43164632  0.88263506    -0.02900
Br3081     Br  0.71218204  0.39473084  0.89087663    -0.02600
H3082       H  0.72305389  0.41524120  0.85948974     0.09600
H3083       H  0.75791251  0.00207401  0.89190803     0.07600
Br3084     Br  0.76793783  0.02352309  0.86117304    -0.03000
C3085       C  0.85983730  0.25281265  0.82066234    -0.09600
C3086       C  0.84393210  0.27450436  0.81170710     0.06600
C3087       C  0.86089434  0.29499680  0.80247808    -0.03400
C3088       C  0.89291038  0.29396780  0.80265972    -0.07800
C3089       C  0.90883359  0.27250028  0.81167493     0.05700
C3090       C  0.89198731  0.25168596  0.82075283    -0.02900
Br3091     Br  0.91134027  0.22262013  0.83422894    -0.02600
H3092       H  0.84720802  0.23695649  0.82784641     0.09600
H3093       H  0.90549634  0.30974854  0.79540398     0.07600
Br3094     Br  0.84213026  0.32347915  0.78845277    -0.03000
C3095       C  0.64323604  0.30470774  0.80986044    -0.09600
C3096       C  0.65893783  0.27650658  0.80858313     0.06600
C3097       C  0.64156585  0.24952200  0.80624308    -0.03400
C3098       C  0.60952702  0.25110286  0.80585525    -0.07800
C3099       C  0.59372834  0.27912284  0.80755035     0.05700
C3100       C  0.61111091  0.30633382  0.80932327    -0.02900
Br3101     Br  0.59313380  0.34651180  0.81158254    -0.02600
H3102       H  0.65600286  0.32577263  0.81151231     0.09600
H3103       H  0.59685425  0.22999513  0.80416918     0.07600
Br3104     Br  0.65947704  0.20962806  0.80289426    -0.03000
C3105       C  0.51181240  0.31612336  0.86236812    -0.09600
C3106       C  0.50459122  0.28725009  0.85597899     0.06600
C3107       C  0.99696906  0.25976521  0.86595605    -0.03400
C3108       C  0.99766779  0.26431800  0.88189674    -0.07800
C3109       C  0.50525049  0.29662583  0.88852284     0.05700
C3110       C  0.51232002  0.32098190  0.87838376    -0.02900
Br3111     Br  0.52391652  0.36110831  0.88543159    -0.02600
H3112       H  0.51740187  0.33511876  0.85485714     0.09600
H3113       H  0.99188735  0.24512377  0.88924299     0.07600
Br3114     Br  0.98450492  0.21968673  0.85910374    -0.03000
C3115       C  0.85148556  0.99013740  0.82108218    -0.09600
C3116       C  0.83565021  0.46642714  0.81354665     0.06600
C3117       C  0.85277107  0.44260387  0.80646972    -0.03400
C3118       C  0.88487637  0.44306969  0.80694107    -0.07800
C3119       C  0.90072497  0.96702377  0.81427452     0.05700
C3120       C  0.88362545  0.99051007  0.82162336    -0.02900
Br3121     Br  0.90243061  0.02273726  0.83341499    -0.02600
H3122       H  0.83879834  0.00828702  0.82681696     0.09600
H3123       H  0.89751742  0.42494323  0.80116355     0.07600
Br3124     Br  0.83415882  0.40980246  0.79501108    -0.03000
C3125       C  0.63420532  0.98620678  0.82159886    -0.09600
C3126       C  0.65063893  0.46845052  0.81090013     0.06600
C3127       C  0.63430463  0.45027146  0.80022036    -0.03400
C3128       C  0.60213955  0.44971003  0.80059443    -0.07800
C3129       C  0.58570384  0.96740425  0.81135053     0.05700
C3130       C  0.60210196  0.98560860  0.82200576    -0.02900
Br3131     Br  0.58210158  0.00814516  0.83820354    -0.02600
H3132       H  0.64646566  0.99988462  0.83002782     0.09600
H3133       H  0.58987396  0.43589615  0.79222705     0.07600
Br3134     Br  0.65465165  0.42741932  0.78425251    -0.03000
C3135       C  0.51006934  0.97917587  0.86739671    -0.09600
C3136       C  0.49603838  0.45608663  0.85853103     0.06600
C3137       C  0.98267181  0.43384962  0.86625074    -0.03400
C3138       C  0.98163967  0.43380679  0.88242167    -0.07800
C3139       C  0.49407897  0.45434403  0.89125931     0.05700
C3140       C  0.50953665  0.97837213  0.88351830    -0.02900
Br3141     Br  0.53184925  0.00989635  0.89420448    -0.02600
H3142       H  0.52174156  0.99794749  0.86174907     0.09600
H3143       H  0.97028072  0.41501352  0.88821443     0.07600
Br3144     Br  0.96309461  0.40035930  0.85575636    -0.03000
C3145       C  0.78206325  0.23326064  0.74391812    -0.09600
C3146       C  0.76427885  0.24987571  0.73331914     0.06600
C3147       C  0.74282522  0.27161834  0.73898499    -0.03400
C3148       C  0.74019398  0.27682595  0.75489437    -0.07800
C3149       C  0.75793934  0.26007440  0.76546215     0.05700
C3150       C  0.77879409  0.23782062  0.75980630    -0.02900
Br3151     Br  0.80490336  0.21422352  0.77315629    -0.02600
H3152       H  0.79872242  0.21659255  0.73980795     0.09600
H3153       H  0.72402339  0.29393577  0.75903966     0.07600
Br3154     Br  0.71776619  0.29623595  0.72560639    -0.03000
C3155       C  0.82081559  0.25670073  0.63558017    -0.09600
C3156       C  0.79717578  0.23869503  0.64186066     0.06600
C3157       C  0.77870985  0.22129114  0.63176165    -0.03400
C3158       C  0.78375860  0.22245332  0.61585664    -0.07800
C3159       C  0.80691682  0.24088991  0.60950257     0.05700
C3160       C  0.82545547  0.25832223  0.61957110    -0.02900
Br3161     Br  0.85500448  0.28718999  0.61209548    -0.02600
H3162       H  0.83489528  0.27064544  0.64311415     0.09600
H3163       H  0.76931698  0.20879732  0.60835718     0.07600
Br3164     Br  0.74689226  0.19452303  0.63897553    -0.03000
C3165       C  0.80694550  0.38359116  0.69186283    -0.09600
C3166       C  0.78023674  0.39916205  0.68712666     0.06600
C3167       C  0.75466046  0.38172975  0.68228291    -0.03400
C3168       C  0.75634203  0.34974022  0.68231323    -0.07800
C3169       C  0.78297150  0.33414335  0.68708766     0.05700
C3170       C  0.80858078  0.35154758  0.69195689    -0.02900
Br3171     Br  0.84638466  0.33391003  0.69931969    -0.02600
H3172       H  0.82678915  0.39640427  0.69573213     0.09600
H3173       H  0.73641149  0.33697239  0.67851965     0.07600
Br3174     Br  0.71659641  0.39923282  0.67521776    -0.03000
C3175       C  0.75196892  0.09986053  0.68994864    -0.09600
C3176       C  0.78019032  0.08408348  0.68982297     0.06600
C3177       C  0.80757287  0.10133538  0.68911433    -0.03400
C3178       C  0.80616473  0.13336925  0.68880445    -0.07800
C3179       C  0.77799384  0.14921684  0.68901558     0.05700
C3180       C  0.75054836  0.13195623  0.68954090    -0.02900
Br3181     Br  0.71019503  0.14997923  0.69000634    -0.02600
H3182       H  0.73064969  0.08714164  0.69042914     0.09600
H3183       H  0.82752921  0.14597214  0.68819960     0.07600
Br3184     Br  0.84785642  0.08331190  0.68778700    -0.03000
C3185       C  0.76820489  0.45583967  0.75844750    -0.09600
C3186       C  0.74833845  0.97605327  0.76624965     0.06600
C3187       C  0.73317459  0.99919275  0.75767547    -0.03400
C3188       C  0.73896350  0.00235205  0.74181703    -0.07800
C3189       C  0.76009865  0.98307083  0.73425699     0.05700
C3190       C  0.77421549  0.45922256  0.74269319    -0.02900
Br3191     Br  0.80082589  0.42959674  0.73309696    -0.02600
H3192       H  0.77972903  0.43766744  0.76471601     0.09600
H3193       H  0.72733022  0.02029886  0.73543175     0.07600
Br3194     Br  0.70333478  0.02617283  0.76682652    -0.03000
C3195       C  0.82586575  0.48145293  0.63741582    -0.09600
C3196       C  0.79967513  0.49623769  0.64347935     0.06600
C3197       C  0.77981874  0.01170706  0.63323047    -0.03400
C3198       C  0.78523400  0.01063019  0.61738602    -0.07800
C3199       C  0.81059647  0.49485942  0.61119162     0.05700
C3200       C  0.83146271  0.48063180  0.62144223    -0.02900
Br3201     Br  0.86646255  0.45773273  0.61433518    -0.02600
H3202       H  0.84153259  0.46960646  0.64507916     0.09600
H3203       H  0.76936473  0.02240009  0.60980051     0.07600
Br3204     Br  0.74561913  0.03615394  0.64006643    -0.03000
C3205       C  0.97140371  0.28447656  0.75586736    -0.09600
C3206       C  0.49137646  0.26562206  0.76362520     0.06600
C3207       C  0.50596584  0.24224439  0.75497294    -0.03400
C3208       C  0.49937402  0.23878929  0.73924027    -0.07800
C3209       C  0.47810556  0.25806511  0.73182264     0.05700
C3210       C  0.96480399  0.28108289  0.74015091    -0.02900
Br3211     Br  0.93805494  0.31082222  0.73079178    -0.02600
H3212       H  0.96011375  0.30266770  0.76229001     0.09600
H3213       H  0.51101936  0.22094018  0.73273616     0.07600
Br3214     Br  0.53666417  0.21578039  0.76371688    -0.03000
C3215       C  0.46976466  0.26802917  0.61414747    -0.09600
C3216       C  0.44532792  0.25239549  0.60712593     0.06600
C3217       C  0.92423145  0.23645650  0.61643099    -0.03400
C3218       C  0.92784231  0.23694320  0.63253094    -0.07800
C3219       C  0.45253889  0.25263594  0.63969291     0.05700
C3220       C  0.47355148  0.26830878  0.63014275    -0.02900
Br3221     Br  0.50728030  0.29188059  0.63808616    -0.02600
H3222       H  0.48614237  0.28031266  0.60710885     0.09600
H3223       H  0.91174357  0.22439518  0.63960359     0.07600
Br3224     Br  0.89220640  0.21132971  0.60802806    -0.03000
C3225       C  0.48998857  0.39304319  0.69131102    -0.09600
C3226       C  0.46419864  0.40915566  0.68591069     0.06600
C3227       C  0.93925555  0.39175462  0.67986205    -0.03400
C3228       C  0.94018399  0.35963001  0.67992396    -0.07800
C3229       C  0.96605949  0.34363060  0.68536348     0.05700
C3230       C  0.49072728  0.36097832  0.69144647    -0.02900
Br3231     Br  0.52612712  0.34189112  0.70060037    -0.02600
H3232       H  0.50949974  0.40547936  0.69585950     0.09600
H3233       H  0.92062563  0.34707387  0.67551120     0.07600
Br3234     Br  0.90324221  0.41089740  0.67133912    -0.03000
C3235       C  0.93895229  0.10880630  0.68594804    -0.09600
C3236       C  0.46646260  0.09410273  0.68957639     0.06600
C3237       C  0.49309767  0.11189635  0.69204871    -0.03400
C3238       C  0.49155397  0.14394759  0.69096306    -0.07800
C3239       C  0.96419890  0.15856491  0.68732811     0.05700
C3240       C  0.93759130  0.14084188  0.68467204    -0.02900
Br3241     Br  0.89914414  0.15836087  0.67819463    -0.02600
H3242       H  0.91840832  0.09567848  0.68357896     0.09600
H3243       H  0.51219011  0.15711254  0.69310499     0.07600
Br3244     Br  0.53218246  0.09443027  0.69747890    -0.03000
C3245       C  0.96009905  0.46819647  0.74146566    -0.09600
C3246       C  0.97862832  0.98988007  0.73396562     0.06600
C3247       C  0.50219751  0.00497970  0.74283760    -0.03400
C3248       C  0.50538459  0.99900200  0.75863938    -0.07800
C3249       C  0.48644051  0.47770886  0.76614669     0.05700
C3250       C  0.96412712  0.46150782  0.75714218    -0.02900
Br3251     Br  0.93772580  0.43128474  0.76616101    -0.02600
H3252       H  0.94262946  0.45602210  0.73503294     0.09600
H3253       H  0.52301097  0.01087380  0.76510520     0.07600
Br3254     Br  0.53002235  0.03381964  0.73379398    -0.03000
C3255       C  0.92540158  0.01562692  0.61847063    -0.09600
C3256       C  0.44950789  0.50420568  0.60947189     0.06600
C3257       C  0.47621110  0.49328023  0.61696029    -0.03400
C3258       C  0.47826550  0.49414194  0.63303624    -0.07800
C3259       C  0.95423474  0.00526997  0.64203118     0.05700
C3260       C  0.92737276  0.01612721  0.63460904    -0.02900
Br3261     Br  0.89291580  0.03297515  0.64558252    -0.02600
H3262       H  0.90479572  0.02435181  0.61300928     0.09600
H3263       H  0.49891715  0.48532895  0.63841386     0.07600
Br3264     Br  0.51011581  0.47480820  0.60617677    -0.03000
O3265       O  0.49648326  0.99901401  0.70847784    -0.72200
O3266       O  0.48451582  0.50271296  0.66512930    -0.72500
O3267       O  0.49104793  0.54469318  0.68758050    -0.72300
O3268       O  0.48970818  0.95752047  0.68590765    -0.72300
O3269       O  0.94035673  0.95769897  0.68780547    -0.72300
O3270       O  0.94206872  0.54457533  0.69177119    -0.72300
O3271       O  0.93542438  0.00503555  0.66818564    -0.72300
O3272       O  0.94720829  0.49645667  0.71151589    -0.72400
V3273       V  0.48949307  0.50107049  0.68686248     1.35200
V3274       V  0.94221199  0.50104986  0.68979557     1.35200
C3275       C  0.97395625  0.49547084  0.71724298     0.77000
C3276       C  0.95812648  0.50454238  0.65908605     0.77000
C3277       C  0.46672288  0.55994656  0.68989960     0.76900
C3278       C  0.46460538  0.94307689  0.68656677     0.76900
O3279       O  0.94674135  0.75448149  0.70913489    -0.72200
O3280       O  0.93430748  0.74970936  0.66560531    -0.72500
O3281       O  0.94004922  0.70819135  0.68853975    -0.72300
O3282       O  0.94075602  0.79527887  0.68632072    -0.72300
O3283       O  0.48969733  0.79491897  0.68439054    -0.72300
O3284       O  0.48855722  0.70774958  0.68425225    -0.72300
O3285       O  0.48323757  0.75168504  0.66260558    -0.72300
O3286       O  0.49526214  0.75139814  0.70594427    -0.72400
V3287       V  0.94137368  0.75176362  0.68733349     1.35200
V3288       V  0.48820592  0.75138122  0.68433642     1.35200
C3289       C  0.47281673  0.75445776  0.71503698     0.77000
C3290       C  0.45667202  0.75142571  0.65673286     0.77000
C3291       C  0.96429657  0.69266143  0.68648910     0.76900
C3292       C  0.96579085  0.80967800  0.68524297     0.76900
O3293       O  0.81389488  0.49351975  0.67023346    -0.72200
O3294       O  0.79471635  0.98835103  0.71303143    -0.72500
O3295       O  0.80441954  0.94778203  0.69039012    -0.72300
O3296       O  0.80403000  0.53467076  0.69286214    -0.72300
O3297       O  0.75567276  0.53541548  0.68705868    -0.72300
O3298       O  0.75567988  0.94845027  0.68549682    -0.72300
O3299       O  0.74602803  0.49024061  0.70775988    -0.72300
O3300       O  0.76523428  0.99349322  0.66496397    -0.72400
V3301       V  0.80331805  0.99119089  0.69156042     1.35200
V3302       V  0.75659229  0.99190224  0.68642955     1.35200
C3303       C  0.79271907  0.99444480  0.66025984     0.77000
C3304       C  0.76717983  0.98768615  0.71767902     0.77000
C3305       C  0.78000773  0.93318528  0.68761447     0.76900
C3306       C  0.78003592  0.54999996  0.68997020     0.76900
O3307       O  0.74819718  0.74573673  0.70693084    -0.72200
O3308       O  0.76407278  0.73974950  0.66390882    -0.72500
O3309       O  0.75448230  0.69906228  0.68658604    -0.72300
O3310       O  0.75787173  0.78588687  0.68431955    -0.72300
O3311       O  0.80634960  0.78447100  0.68980740    -0.72300
O3312       O  0.80366284  0.69751325  0.69015310    -0.72300
O3313       O  0.81308133  0.74040114  0.66833488    -0.72300
O3314       O  0.79702744  0.74201507  0.71152681    -0.72400
V3315       V  0.75709705  0.74250798  0.68550838     1.35200
V3316       V  0.80410326  0.74104225  0.68986493     1.35200
C3317       C  0.76996106  0.74549428  0.71657388     0.77000
C3318       C  0.79122592  0.73949475  0.65873046     0.77000
C3319       C  0.77856091  0.68332368  0.68859566     0.76900
C3320       C  0.78253721  0.80011497  0.68705780     0.76900
O3321       O  0.99169275  0.49668449  0.79148548    -0.72200
O3322       O  0.49448304  0.48592829  0.83546706    -0.72500
O3323       O  0.53662624  0.49132764  0.81321666    -0.72300
O3324       O  0.94960728  0.49205383  0.81402234    -0.72300
O3325       O  0.94977123  0.94239688  0.81217724    -0.72300
O3326       O  0.53709275  0.94209120  0.80933331    -0.72300
O3327       O  0.99627245  0.93829295  0.83246722    -0.72300
O3328       O  0.49015214  0.94672860  0.78894364    -0.72400
V3329       V  0.49315450  0.49007607  0.81366993     1.35200
V3330       V  0.49335668  0.94257363  0.81077352     1.35200
C3331       C  0.48968970  0.97327678  0.78302056     0.77000
C3332       C  0.49554219  0.95954244  0.84144970     0.77000
C3333       C  0.55176156  0.46682524  0.81126670     0.76900
C3334       C  0.93478713  0.46717211  0.81359240     0.76900
O3335       O  0.99714217  0.79462875  0.78642412    -0.72200
O3336       O  0.50258609  0.80624843  0.83003264    -0.72500
O3337       O  0.54354992  0.80253528  0.80685907    -0.72300
O3338       O  0.95671118  0.79804715  0.80950122    -0.72300
O3339       O  0.95843169  0.74848499  0.81206962    -0.72300
O3340       O  0.54557293  0.75313850  0.80957084    -0.72300
O3341       O  0.00433344  0.75444727  0.83246094    -0.72300
O3342       O  0.49917967  0.74651177  0.78926484    -0.72400
V3343       V  0.50005328  0.80017010  0.80829371     1.35200
V3344       V  0.50208223  0.75265067  0.81095646     1.35200
C3345       C  0.49647464  0.76947717  0.78045995     0.77000
C3346       C  0.50406861  0.78320340  0.83887905     0.77000
C3347       C  0.55954701  0.77835590  0.80794092     0.76900
C3348       C  0.94272982  0.77291629  0.81123055     0.76900
O3349       O  0.74059926  0.93973718  0.83356716    -0.72200
O3350       O  0.74549420  0.94693342  0.78968963    -0.72500
O3351       O  0.78632404  0.94251451  0.81272945    -0.72300
O3352       O  0.69943587  0.94365272  0.81027444    -0.72300
O3353       O  0.69935572  0.49310144  0.81349305    -0.72300
O3354       O  0.78689249  0.49226672  0.81385416    -0.72300
O3355       O  0.74343114  0.49654333  0.79181384    -0.72300
O3356       O  0.74279750  0.48926104  0.83546794    -0.72400
V3357       V  0.74289946  0.94415856  0.81162120     1.35200
V3358       V  0.74309426  0.49183808  0.81362507     1.35200
C3359       C  0.74169710  0.46345353  0.84207910     0.77000
C3360       C  0.74515375  0.47303619  0.78326453     0.77000
C3361       C  0.80154886  0.96709678  0.81334249     0.76900
C3362       C  0.68452933  0.96848479  0.81148004     0.76900
O3363       O  0.74872809  0.75776704  0.83464171    -0.72200
O3364       O  0.75400108  0.74396285  0.79161692    -0.72500
O3365       O  0.79488881  0.75074413  0.81434406    -0.72300
O3366       O  0.70781181  0.75140128  0.81180759    -0.72300
O3367       O  0.70816203  0.80071636  0.80861007    -0.72300
O3368       O  0.79524186  0.79970795  0.80977431    -0.72300
O3369       O  0.75289957  0.79311773  0.78752707    -0.72300
O3370       O  0.75071222  0.80702054  0.83103998    -0.72400
V3371       V  0.75132171  0.75196461  0.81305095     1.35200
V3372       V  0.75173517  0.79924282  0.80933922     1.35200
C3373       C  0.74883490  0.78456391  0.84024776     0.77000
C3374       C  0.75466811  0.76601782  0.78221094     0.77000
C3375       C  0.80996705  0.77505090  0.81199327     0.76900
C3376       C  0.69303008  0.77608168  0.80969023     0.76900
O3377       O  0.94012833  0.50646562  0.33338865    -0.72200
O3378       O  0.95222474  0.00114063  0.29004220    -0.72500
O3379       O  0.94571626  0.96086839  0.31290090    -0.72300
O3380       O  0.94612310  0.54754358  0.31049073    -0.72300
O3381       O  0.49514885  0.54737030  0.31445071    -0.72300
O3382       O  0.49529257  0.95998381  0.31563372    -0.72300
O3383       O  0.50161781  0.50237922  0.29338682    -0.72300
O3384       O  0.48944152  0.00472517  0.33662553    -0.72400
V3385       V  0.94699535  0.00412529  0.31175990     1.35200
V3386       V  0.49443484  0.00369307  0.31494549     1.35200
C3387       C  0.46281590  0.00514710  0.34242022     0.77000
C3388       C  0.47900796  0.00014987  0.28431600     0.77000
C3389       C  0.97012352  0.94567750  0.31472713     0.76900
C3390       C  0.97056801  0.56262040  0.31234230     0.76900
O3391       O  0.93836543  0.75213247  0.33002557    -0.72200
O3392       O  0.94942110  0.75808857  0.28653537    -0.72500
O3393       O  0.94294073  0.71129162  0.30690130    -0.72300
O3394       O  0.94492925  0.79854011  0.30993719    -0.72300
O3395       O  0.49423585  0.79599505  0.31337558    -0.72300
O3396       O  0.49216769  0.70944434  0.30988589    -0.72300
O3397       O  0.49871691  0.75602400  0.28988876    -0.72300
O3398       O  0.48773699  0.74918635  0.33312444    -0.72400
V3399       V  0.94482112  0.75494729  0.30835721     1.35200
V3400       V  0.49221073  0.75272854  0.31146581     1.35200
C3401       C  0.46123009  0.74905189  0.33902628     0.77000
C3402       C  0.47602586  0.75836176  0.28086688     0.77000
C3403       C  0.96733237  0.69565680  0.30830129     0.76900
C3404       C  0.97000284  0.81245731  0.31222033     0.76900
O3405       O  0.81207481  0.00382948  0.33465863    -0.72200
O3406       O  0.80134946  0.49908654  0.29115605    -0.72500
O3407       O  0.80834633  0.54505353  0.31166987    -0.72300
O3408       O  0.80553584  0.95836011  0.31397964    -0.72300
O3409       O  0.75606683  0.95996364  0.31625040    -0.72300
O3410       O  0.75907673  0.54744733  0.31520505    -0.72300
O3411       O  0.75197649  0.00279085  0.29417849    -0.72300
O3412       O  0.76259697  0.50441118  0.33751464    -0.72400
V3413       V  0.80586593  0.50171022  0.31293812     1.35200
V3414       V  0.75838275  0.50369142  0.31576504     1.35200
C3415       C  0.78900365  0.50389982  0.34353746     0.77000
C3416       C  0.77473942  0.49976060  0.28529704     0.77000
C3417       C  0.78433204  0.56112091  0.31309097     0.76900
C3418       C  0.78041847  0.94415689  0.31517103     0.76900
O3419       O  0.75542299  0.75342497  0.29116065    -0.72200
O3420       O  0.76633736  0.75041269  0.33467914    -0.72500
O3421       O  0.76014950  0.79536614  0.31382703    -0.72300
O3422       O  0.76143082  0.70830995  0.31199291    -0.72300
O3423       O  0.81074726  0.70888868  0.30846084    -0.72300
O3424       O  0.80958074  0.79596026  0.31143023    -0.72300
O3425       O  0.81571877  0.74985038  0.33171252    -0.72300
O3426       O  0.80483906  0.75575438  0.28817025    -0.72400
V3427       V  0.76180963  0.75182130  0.31286267     1.35200
V3428       V  0.80928420  0.75251117  0.30998306     1.35200
C3429       C  0.77825562  0.75592866  0.28226270     0.77000
C3430       C  0.79282188  0.75016538  0.34069410     0.77000
C3431       C  0.78471929  0.81064360  0.31305441     0.76900
C3432       C  0.78617331  0.69372347  0.30979480     0.76900
O3433       O  0.91567588  0.49607174  0.45893903    -0.72200
O3434       O  0.92521680  0.99514193  0.41540286    -0.72500
O3435       O  0.92044237  0.95157930  0.43736767    -0.72300
O3436       O  0.92089557  0.53914311  0.43695173    -0.72300
O3437       O  0.47000896  0.53855006  0.44101881    -0.72300
O3438       O  0.47060192  0.95160905  0.43837331    -0.72300
O3439       O  0.47473682  0.49766450  0.41806075    -0.72300
O3440       O  0.46537918  0.99245185  0.46145482    -0.72400
V3441       V  0.92146950  0.99540767  0.43722893     1.35200
V3442       V  0.46921934  0.99505641  0.43969175     1.35200
C3443       C  0.43904376  0.99394224  0.46755637     0.77000
C3444       C  0.45171772  0.99718787  0.40918088     0.77000
C3445       C  0.94544786  0.93663698  0.43774123     0.76900
C3446       C  0.94561715  0.55374551  0.43913514     0.76900
O3447       O  0.92391913  0.74519077  0.45638126    -0.72200
O3448       O  0.92540654  0.74681344  0.41254451    -0.72500
O3449       O  0.92370900  0.70228726  0.43409214    -0.72300
O3450       O  0.92513190  0.78926936  0.43503967    -0.72300
O3451       O  0.47522377  0.78848355  0.43430057    -0.72300
O3452       O  0.47328835  0.70094271  0.43595652    -0.72300
O3453       O  0.47517309  0.74292229  0.41320652    -0.72300
O3454       O  0.47380961  0.74632930  0.45694153    -0.72400
V3455       V  0.92551977  0.74580831  0.43449689     1.35200
V3456       V  0.47345238  0.74468961  0.43506501     1.35200
C3457       C  0.44870452  0.74606890  0.46422402     0.77000
C3458       C  0.45067491  0.74507831  0.40545688     0.77000
C3459       C  0.94813794  0.68670544  0.43512399     0.76900
C3460       C  0.95012863  0.80382570  0.43471955     0.76900
O3461       O  0.83150948  0.49941326  0.41630766    -0.72200
O3462       O  0.83836447  0.99628458  0.46013010    -0.72500
O3463       O  0.83455587  0.95412233  0.43747405    -0.72300
O3464       O  0.83551671  0.54126103  0.43890969    -0.72300
O3465       O  0.78572274  0.54191893  0.43947836    -0.72300
O3466       O  0.78519316  0.95470876  0.44068976    -0.72300
O3467       O  0.78879742  0.49961916  0.46185948    -0.72300
O3468       O  0.78195586  0.99726108  0.41831849    -0.72400
V3469       V  0.83407673  0.99772804  0.43824070     1.35200
V3470       V  0.78638320  0.99831538  0.44005721     1.35200
C3471       C  0.80547123  0.99904998  0.40984988     0.77000
C3472       C  0.81460259  0.99824104  0.46848304     0.77000
C3473       C  0.80977726  0.93947208  0.43918830     0.76900
C3474       C  0.81076903  0.55649167  0.43919555     0.76900
O3475       O  0.78770663  0.74715517  0.45947429    -0.72200
O3476       O  0.78384170  0.74926214  0.41571200    -0.72500
O3477       O  0.78524134  0.70461063  0.43705543    -0.72300
O3478       O  0.78634847  0.79179523  0.43818900    -0.72300
O3479       O  0.83606580  0.79097944  0.43682211    -0.72300
O3480       O  0.83500402  0.70375248  0.43617460    -0.72300
O3481       O  0.83351848  0.74789394  0.41446222    -0.72300
O3482       O  0.83745962  0.74645675  0.45843792    -0.72400
V3483       V  0.78676966  0.74818502  0.43757190     1.35200
V3484       V  0.83456423  0.74733963  0.43648760     1.35200
C3485       C  0.81319415  0.74615394  0.46646211     0.77000
C3486       C  0.80791048  0.74870394  0.40754639     0.77000
C3487       C  0.80991662  0.68927574  0.43654013     0.76900
C3488       C  0.81139561  0.80631540  0.43758785     0.76900
O3489       O  0.49225595  0.93186599  0.04279826    -0.72200
O3490       O  0.99653901  0.93879758  0.08647497    -0.72500
O3491       O  0.95097402  0.93588521  0.06555484    -0.72300
O3492       O  0.53808280  0.93575264  0.06371703    -0.72300
O3493       O  0.53695118  0.48526975  0.06207341    -0.72300
O3494       O  0.95034833  0.48560848  0.06406566    -0.72300
O3495       O  0.49550584  0.48746533  0.08490880    -0.72300
O3496       O  0.99187539  0.48362410  0.04141577    -0.72400
V3497       V  0.99444896  0.93729453  0.06449856     1.35200
V3498       V  0.99384395  0.48502409  0.06325008     1.35200
C3499       C  0.99086623  0.45806814  0.03445494     0.77000
C3500       C  0.99637432  0.46456329  0.09328833     0.77000
C3501       C  0.93577817  0.96063533  0.06508009     0.76900
C3502       C  0.55252636  0.96075634  0.06267697     0.76900
O3503       O  0.00437585  0.82145408  0.03910471    -0.72200
O3504       O  0.50751022  0.81935452  0.08308098    -0.72500
O3505       O  0.54987344  0.82013568  0.06045988    -0.72300
O3506       O  0.96261976  0.82132457  0.06183262    -0.72300
O3507       O  0.96178723  0.77153409  0.06118774    -0.72300
O3508       O  0.54898782  0.77033789  0.05958505    -0.72300
O3509       O  0.00687518  0.76971244  0.08215622    -0.72300
O3510       O  0.50388447  0.77280677  0.03835630    -0.72400
V3511       V  0.50618722  0.81999258  0.06115675     1.35200
V3512       V  0.50542043  0.77216364  0.06023855     1.35200
C3513       C  0.50335240  0.79822435  0.03134180     0.77000
C3514       C  0.50726962  0.79394128  0.09010384     0.77000
C3515       C  0.56435502  0.79489016  0.05995789     0.76900
C3516       C  0.94727642  0.79674073  0.06171966     0.76900
O3517       O  0.74416872  0.94344164  0.08763701    -0.72200
O3518       O  0.74439726  0.93653479  0.04382330    -0.72500
O3519       O  0.78785033  0.93923439  0.06585659    -0.72300
O3520       O  0.70078599  0.94059505  0.06553806    -0.72300
O3521       O  0.70116370  0.49022117  0.06408820    -0.72300
O3522       O  0.78832637  0.48882621  0.06352673    -0.72300
O3523       O  0.74393694  0.48618162  0.04203907    -0.72300
O3524       O  0.74546740  0.49299312  0.08569634    -0.72400
V3525       V  0.74431160  0.94090084  0.06569721     1.35200
V3526       V  0.74474932  0.48859403  0.06389618     1.35200
C3527       C  0.74509749  0.46947975  0.09420417     0.77000
C3528       C  0.74384625  0.46023896  0.03542382     0.77000
C3529       C  0.80299111  0.96378423  0.06451410     0.76900
C3530       C  0.68597758  0.96558860  0.06461094     0.76900
O3531       O  0.75342503  0.76712517  0.08249340    -0.72200
O3532       O  0.75827793  0.77250327  0.03897241    -0.72500
O3533       O  0.79947949  0.76975852  0.06197415    -0.72300
O3534       O  0.71225192  0.77025741  0.05956021    -0.72300
O3535       O  0.71217850  0.81997204  0.06154558    -0.72300
O3536       O  0.79923616  0.81956342  0.06296062    -0.72300
O3537       O  0.75694614  0.82226622  0.04036116    -0.72300
O3538       O  0.75441364  0.81680953  0.08424265    -0.72400
V3539       V  0.75585463  0.77089478  0.06076967     1.35200
V3540       V  0.75571522  0.81870474  0.06226549     1.35200
C3541       C  0.75310065  0.79090682  0.09085338     0.77000
C3542       C  0.75831076  0.79814911  0.03219204     0.77000
C3543       C  0.81426074  0.79465952  0.06283812     0.76900
C3544       C  0.69734293  0.79525255  0.06013862     0.76900
O3545       O  0.00035430  0.49916650  0.16656730    -0.72200
O3546       O  0.49872659  0.50917335  0.21002472    -0.72500
O3547       O  0.54328648  0.50369254  0.18890650    -0.72300
O3548       O  0.95601784  0.50439973  0.18792014    -0.72300
O3549       O  0.95568201  0.95473694  0.18957567    -0.72300
O3550       O  0.54242692  0.95439795  0.19221671    -0.72300
O3551       O  0.99625432  0.95897428  0.21263170    -0.72300
O3552       O  0.50138041  0.95029045  0.16902572    -0.72400
V3553       V  0.49970070  0.50353836  0.18831280     1.35200
V3554       V  0.49896315  0.95593803  0.19075170     1.35200
C3555       C  0.50123467  0.97343506  0.16025549     0.77000
C3556       C  0.49668269  0.98598936  0.21869675     0.77000
C3557       C  0.55782077  0.47884025  0.19107944     0.76900
C3558       C  0.94091042  0.47969892  0.18872136     0.76900
O3559       O  0.00862555  0.80622601  0.16552158    -0.72200
O3560       O  0.50024428  0.79822865  0.20915927    -0.72500
O3561       O  0.54829440  0.80251737  0.18935152    -0.72300
O3562       O  0.96146089  0.80208406  0.18531869    -0.72300
O3563       O  0.96239476  0.75232990  0.18423361    -0.72300
O3564       O  0.54941760  0.75311763  0.18611921    -0.72300
O3565       O  0.00386926  0.74906760  0.20693865    -0.72300
O3566       O  0.50746902  0.75615927  0.16351587    -0.72400
V3567       V  0.50470190  0.80103918  0.18736242     1.35200
V3568       V  0.50589360  0.75335881  0.18531556     1.35200
C3569       C  0.50845033  0.78208989  0.15703332     0.77000
C3570       C  0.50026466  0.77207589  0.21549721     0.77000
C3571       C  0.56381004  0.77798650  0.18809785     0.76900
C3572       C  0.94703197  0.77702822  0.18431784     0.76900
O3573       O  0.75434503  0.96207597  0.21339750    -0.72200
O3574       O  0.74594291  0.95417365  0.16997356    -0.72500
O3575       O  0.79324138  0.95837923  0.18968791    -0.72300
O3576       O  0.70653396  0.95793962  0.19382030    -0.72300
O3577       O  0.70557579  0.50725415  0.19054054    -0.72300
O3578       O  0.79264150  0.50813570  0.18861252    -0.72300
O3579       O  0.74726048  0.50369545  0.16774865    -0.72300
O3580       O  0.75105516  0.51168459  0.21133333    -0.72400
V3581       V  0.74992732  0.95908558  0.19167098     1.35200
V3582       V  0.74910103  0.50675239  0.18959131     1.35200
C3583       C  0.75408757  0.48824908  0.21977640     0.77000
C3584       C  0.74583253  0.47755244  0.16135677     0.77000
C3585       C  0.80784858  0.98334679  0.18872880     0.76900
C3586       C  0.69110239  0.98253659  0.19274078     0.76900
O3587       O  0.75716028  0.74479113  0.20746496    -0.72200
O3588       O  0.75398392  0.75383517  0.16379640    -0.72500
O3589       O  0.79899134  0.74863765  0.18485497    -0.72300
O3590       O  0.71189530  0.74996207  0.18631496    -0.72300
O3591       O  0.71248401  0.79941145  0.18931215    -0.72300
O3592       O  0.79962256  0.79824708  0.18711312    -0.72300
O3593       O  0.75412099  0.80336212  0.16648955    -0.72300
O3594       O  0.75875980  0.79432173  0.21005677    -0.72400
V3595       V  0.75546062  0.75025989  0.18567888     1.35200
V3596       V  0.75613937  0.79786853  0.18821154     1.35200
C3597       C  0.75920221  0.76799469  0.21622330     0.77000
C3598       C  0.75391759  0.78020738  0.15766275     0.77000
C3599       C  0.81421322  0.77322435  0.18571668     0.76900
C3600       C  0.69722516  0.77490153  0.18779981     0.76900
O3601       O  0.99099170  0.48273545  0.91582350    -0.72200
O3602       O  0.48656752  0.47886460  0.95954326    -0.72500
O3603       O  0.53121403  0.47830754  0.93831523    -0.72300
O3604       O  0.94472822  0.48459260  0.93649767    -0.72300
O3605       O  0.94315762  0.93482647  0.93737904    -0.72300
O3606       O  0.53114364  0.92859739  0.93892135    -0.72300
O3607       O  0.98585442  0.93338624  0.95969745    -0.72300
O3608       O  0.49004660  0.92893695  0.91574977    -0.72400
V3609       V  0.48771599  0.47771886  0.93773861     1.35200
V3610       V  0.48750767  0.92996782  0.93774602     1.35200
C3611       C  0.49101417  0.95396255  0.90833010     0.77000
C3612       C  0.48539947  0.95445014  0.96723201     0.77000
C3613       C  0.54614289  0.45340819  0.93895978     0.76900
C3614       C  0.92905837  0.46024999  0.93696116     0.76900
O3615       O  0.00498336  0.82121053  0.91257412    -0.72200
O3616       O  0.50088246  0.82880673  0.95662268    -0.72500
O3617       O  0.54648366  0.82629667  0.93587992    -0.72300
O3618       O  0.95935428  0.82359274  0.93338639    -0.72300
O3619       O  0.95880545  0.77395885  0.93477705    -0.72300
O3620       O  0.54551299  0.77647623  0.93653276    -0.72300
O3621       O  0.00090325  0.77530871  0.95735385    -0.72300
O3622       O  0.50364760  0.77545495  0.91384313    -0.72400
V3623       V  0.50294671  0.82618257  0.93466202     1.35200
V3624       V  0.50191581  0.77837392  0.93556823     1.35200
C3625       C  0.50488711  0.79942434  0.90569163     0.77000
C3626       C  0.50015486  0.80435424  0.96449915     0.77000
C3627       C  0.56086398  0.80109925  0.93673461     0.76900
C3628       C  0.94408182  0.79903292  0.93388558     0.76900
O3629       O  0.73839242  0.93157141  0.96096277    -0.72200
O3630       O  0.73975420  0.93072013  0.91690515    -0.72500
O3631       O  0.78261529  0.93302137  0.93942494    -0.72300
O3632       O  0.69549028  0.92914110  0.93858574    -0.72300
O3633       O  0.69325063  0.47889657  0.93881220    -0.72300
O3634       O  0.78037411  0.48282506  0.93870369    -0.72300
O3635       O  0.73675895  0.48043327  0.91687363    -0.72300
O3636       O  0.73687383  0.48132055  0.96065196    -0.72400
V3637       V  0.73902281  0.93205119  0.93895113     1.35200
V3638       V  0.73683494  0.47987604  0.93876407     1.35200
C3639       C  0.73747481  0.45671324  0.96835340     0.77000
C3640       C  0.73836049  0.45554619  0.90933690     0.77000
C3641       C  0.79633510  0.95856123  0.93925684     0.76900
C3642       C  0.67940652  0.95336841  0.93861907     0.76900
O3643       O  0.75428960  0.77451244  0.95833282    -0.72200
O3644       O  0.74988571  0.77168966  0.91459154    -0.72500
O3645       O  0.79551872  0.77279832  0.93537080    -0.72300
O3646       O  0.70862501  0.77311251  0.93744577    -0.72300
O3647       O  0.70835849  0.82293539  0.93642146    -0.72300
O3648       O  0.79565282  0.82253207  0.93498700    -0.72300
O3649       O  0.75078736  0.82151492  0.91384190    -0.72300
O3650       O  0.75328199  0.82433051  0.95761020    -0.72400
V3651       V  0.75207227  0.77400978  0.93644248     1.35200
V3652       V  0.75201091  0.82188029  0.93574211     1.35200
C3653       C  0.75422934  0.79992527  0.96545555     0.77000
C3654       C  0.75002939  0.79613904  0.90674003     0.77000
C3655       C  0.81054915  0.79748317  0.93470634     0.76900
C3656       C  0.69361981  0.79797179  0.93702823     0.76900
O3657       O  0.92038724  0.50254178  0.58592866    -0.72200
O3658       O  0.91300586  0.00176349  0.54218414    -0.72500
O3659       O  0.91839070  0.95841710  0.56408544    -0.72300
O3660       O  0.91493558  0.54579574  0.56396838    -0.72300
O3661       O  0.46459169  0.54720118  0.56100311    -0.72300
O3662       O  0.46787642  0.96004821  0.56270591    -0.72300
O3663       O  0.46276740  0.50135539  0.54024457    -0.72300
O3664       O  0.46978201  0.00554404  0.58376298    -0.72400
V3665       V  0.91760852  0.00215880  0.56401625     1.35200
V3666       V  0.46528048  0.00358840  0.56200761     1.35200
C3667       C  0.44641473  0.00410457  0.59236043     0.77000
C3668       C  0.43681312  0.00092089  0.53378733     0.77000
C3669       C  0.94383969  0.94435715  0.56324023     0.76900
C3670       C  0.93906277  0.56142836  0.56219156     0.76900
O3671       O  0.91842240  0.75237356  0.58258309    -0.72200
O3672       O  0.91777466  0.75416169  0.53846409    -0.72500
O3673       O  0.91631627  0.70984593  0.56012780    -0.72300
O3674       O  0.91912941  0.79685143  0.56117212    -0.72300
O3675       O  0.46879139  0.79578496  0.56051589    -0.72300
O3676       O  0.46648166  0.70819701  0.56030176    -0.72300
O3677       O  0.46761969  0.75174836  0.53862010    -0.72300
O3678       O  0.46832031  0.75203674  0.58226335    -0.72400
V3679       V  0.91885812  0.75333058  0.56053972     1.35200
V3680       V  0.46681523  0.75196920  0.56043622     1.35200
C3681       C  0.44376474  0.75203054  0.59001131     0.77000
C3682       C  0.44282776  0.75273536  0.53108469     0.77000
C3683       C  0.94070496  0.69409382  0.55995326     0.76900
C3684       C  0.94428813  0.81115408  0.56124982     0.76900
O3685       O  0.84230299  0.49186338  0.54319500    -0.72200
O3686       O  0.83885402  0.99271073  0.58720978    -0.72500
O3687       O  0.83981275  0.94853681  0.56527660    -0.72300
O3688       O  0.84117408  0.53616518  0.56496329    -0.72300
O3689       O  0.79134281  0.53672669  0.56436437    -0.72300
O3690       O  0.79003142  0.94973574  0.56415521    -0.72300
O3691       O  0.78914192  0.49330762  0.58599032    -0.72300
O3692       O  0.79249128  0.99352731  0.54233828    -0.72400
V3693       V  0.83961113  0.99231674  0.56515419     1.35200
V3694       V  0.79177316  0.99323656  0.56421701     1.35200
C3695       C  0.81787693  0.99286565  0.53527246     0.77000
C3696       C  0.81323482  0.99327325  0.59411369     0.77000
C3697       C  0.81455654  0.93425422  0.56484557     0.76900
C3698       C  0.81629789  0.55133255  0.56476223     0.76900
O3699       O  0.83796114  0.74213652  0.54128955    -0.72200
O3700       O  0.83510601  0.74346232  0.58546303    -0.72500
O3701       O  0.83738068  0.69923794  0.56354507    -0.72300
O3702       O  0.83666959  0.78625571  0.56303545    -0.72300
O3703       O  0.78685615  0.78643733  0.56309914    -0.72300
O3704       O  0.78760350  0.69867627  0.56216583    -0.72300
O3705       O  0.78539240  0.74148480  0.58434999    -0.72300
O3706       O  0.78820193  0.74352400  0.54076871    -0.72400
V3707       V  0.83583040  0.74275439  0.56334161     1.35200
V3708       V  0.78799506  0.74254106  0.56259720     1.35200
C3709       C  0.81331280  0.74331557  0.53351142     0.77000
C3710       C  0.80950008  0.74229771  0.59241320     0.77000
C3711       C  0.81279858  0.68406962  0.56275556     0.76900
C3712       C  0.81183304  0.80128443  0.56295229     0.76900
C3713       C  0.83577150  0.88421110  0.55622378    -0.09600
C3714       C  0.81367531  0.90030629  0.56474128     0.06600
C3715       C  0.79068471  0.88364060  0.57252086    -0.03400
C3716       C  0.79005605  0.85150266  0.57152982    -0.07800
C3717       C  0.81221254  0.83535551  0.56299851     0.05700
C3718       C  0.83504600  0.85218748  0.55517910    -0.02900
Br3719     Br  0.86487948  0.83330992  0.54210794    -0.02600
H3720       H  0.85333269  0.89668453  0.55001077     0.09600
H3721       H  0.77260843  0.83902245  0.57780698     0.07600
Br3722     Br  0.76094747  0.90326185  0.58558015    -0.03000
C3723       C  0.83640165  0.60119266  0.55516401    -0.09600
C3724       C  0.81601473  0.58529582  0.56474310     0.06600
C3725       C  0.79454221  0.60214390  0.57357096    -0.03400
C3726       C  0.79341655  0.63421298  0.57251199    -0.07800
C3727       C  0.81368727  0.65011267  0.56289823     0.05700
C3728       C  0.83528126  0.63330842  0.55411982    -0.02900
Br3729     Br  0.86209249  0.65282339  0.53962660    -0.02600
H3730       H  0.85270776  0.58855959  0.54817039     0.09600
H3731       H  0.77713554  0.64683962  0.57952157     0.07600
Br3732     Br  0.76756089  0.58278383  0.58804548    -0.03000
C3733       C  0.42259329  0.89381767  0.57105132    -0.09600
C3734       C  0.94499707  0.91030500  0.56284477     0.06600
C3735       C  0.96742457  0.89388650  0.55436342    -0.03400
C3736       C  0.96714328  0.86166480  0.55418738    -0.07800
C3737       C  0.94470648  0.84517887  0.56225219     0.05700
C3738       C  0.42254478  0.86167829  0.57101631    -0.02900
Br3739     Br  0.39340665  0.84176424  0.58416397    -0.02600
H3740       H  0.40567149  0.90597649  0.57790049     0.09600
H3741       H  0.98409095  0.84945505  0.54739130     0.07600
Br3742     Br  0.99762408  0.91390664  0.54184623    -0.03000
C3743       C  0.45795271  0.61044000  0.55117411    -0.09600
C3744       C  0.93799260  0.59537220  0.56138955     0.06600
C3745       C  0.91846327  0.61315082  0.57087282    -0.03400
C3746       C  0.91924890  0.64528615  0.57002126    -0.07800
C3747       C  0.93935687  0.66021005  0.55989285     0.05700
C3748       C  0.45857389  0.64252843  0.55029139    -0.02900
Br3749     Br  0.48370600  0.66094640  0.53472525    -0.02600
H3750       H  0.47251025  0.59713729  0.54354624     0.09600
H3751       H  0.90465991  0.65869593  0.57759161     0.07600
Br3752     Br  0.89211619  0.59508932  0.58604679    -0.03000
C3753       C  0.86033015  0.82509625  0.93617770    -0.09600
C3754       C  0.84467033  0.79733832  0.93383027     0.06600
C3755       C  0.86214033  0.77043577  0.93088538    -0.03400
C3756       C  0.89425013  0.77174120  0.93086143    -0.07800
C3757       C  0.90990510  0.79940084  0.93353569     0.05700
C3758       C  0.89239590  0.82640571  0.93605031    -0.02900
Br3759     Br  0.91011670  0.86588780  0.94002262    -0.02600
H3760       H  0.84758188  0.84605684  0.93839096     0.09600
H3761       H  0.90706835  0.75081676  0.92865876     0.07600
Br3762     Br  0.84435441  0.73109909  0.92633583    -0.03000
C3763       C  0.64417479  0.82138340  0.94516987    -0.09600
C3764       C  0.65970480  0.79791943  0.93725663     0.06600
C3765       C  0.64245926  0.77518414  0.92955775    -0.03400
C3766       C  0.61038094  0.77638392  0.92986591    -0.07800
C3767       C  0.59480343  0.80021674  0.93749876     0.05700
C3768       C  0.61208633  0.82277358  0.94533405    -0.02900
Br3769     Br  0.59360202  0.85528562  0.95703413    -0.02600
H3770       H  0.65710953  0.83875407  0.95132861     0.09600
H3771       H  0.59751232  0.75905104  0.92365403     0.07600
Br3772     Br  0.66111920  0.74335317  0.91736145    -0.03000
C3773       C  0.88005754  0.94052141  0.94745952    -0.09600
C3774       C  0.89510169  0.46121218  0.93768743     0.06600
C3775       C  0.87734181  0.48246235  0.92922131    -0.03400
C3776       C  0.84522224  0.48165793  0.93014044    -0.07800
C3777       C  0.83023519  0.95999628  0.93940606     0.05700
C3778       C  0.84803140  0.93979895  0.94843590    -0.02900
Br3779     Br  0.83004474  0.91231450  0.96312518    -0.02600
H3780       H  0.89338362  0.92520526  0.95466466     0.09600
H3781       H  0.83184331  0.49753592  0.92325765     0.07600
Br3782     Br  0.89540524  0.51198039  0.91562843    -0.03000
C3783       C  0.62926657  0.47804709  0.94437569    -0.09600
C3784       C  0.64532026  0.95235501  0.93875133     0.06600
C3785       C  0.62836600  0.92679971  0.93342792    -0.03400
C3786       C  0.59620763  0.92747736  0.93389415    -0.07800
C3787       C  0.58021466  0.45332384  0.93939665     0.05700
C3788       C  0.59720242  0.47876365  0.94480129    -0.02900
Br3789     Br  0.57854876  0.51481650  0.95362166    -0.02600
H3790       H  0.64174585  0.49776459  0.94869475     0.09600
H3791       H  0.58363622  0.90786859  0.92952563     0.07600
Br3792     Br  0.64723617  0.89112415  0.92438744    -0.03000
C3793       C  0.89818035  0.74933870  0.18871789    -0.09600
C3794       C  0.91305235  0.77619098  0.18383307     0.06600
C3795       C  0.89503702  0.80151789  0.17910261    -0.03400
C3796       C  0.86302516  0.79981019  0.17977350    -0.07800
C3797       C  0.84817266  0.77317102  0.18494051     0.05700
C3798       C  0.86617326  0.74760170  0.18935340    -0.02900
Br3799     Br  0.84906195  0.71027867  0.19733501    -0.02600
H3800       H  0.91153382  0.72971475  0.19248205     0.09600
H3801       H  0.84963207  0.81946238  0.17608049     0.07600
Br3802     Br  0.91219752  0.83867491  0.17095515    -0.03000
C3803       C  0.61349735  0.75444673  0.18038593    -0.09600
C3804       C  0.59794277  0.77792850  0.18834783     0.06600
C3805       C  0.61542652  0.80043503  0.19610730    -0.03400
C3806       C  0.64760009  0.79915017  0.19565068    -0.07800
C3807       C  0.66310733  0.77549457  0.18776733     0.05700
C3808       C  0.64556636  0.75305959  0.17997020    -0.02900
Br3809     Br  0.66352582  0.72087884  0.16770206    -0.02600
H3810       H  0.60058299  0.73717110  0.17415862     0.09600
H3811       H  0.66059267  0.81647213  0.20179802     0.07600
Br3812     Br  0.59707043  0.83220695  0.20842146    -0.03000
C3813       C  0.89150140  0.50605573  0.18277164    -0.09600
C3814       C  0.90687202  0.48017541  0.18866918     0.06600
C3815       C  0.88926745  0.95565356  0.19455504    -0.03400
C3816       C  0.85726823  0.95728822  0.19419739    -0.07800
C3817       C  0.84186667  0.98309769  0.18830144     0.05700
C3818       C  0.85940330  0.50776445  0.18252514    -0.02900
Br3819     Br  0.84141579  0.54389663  0.17355233    -0.02600
H3820       H  0.90453690  0.52508588  0.17815860     0.09600
H3821       H  0.84430156  0.93832754  0.19893296     0.07600
Br3822     Br  0.90681898  0.91994333  0.20418599    -0.03000
C3823       C  0.60693748  0.50714700  0.19406538    -0.09600
C3824       C  0.59189245  0.47883323  0.19236871     0.06600
C3825       C  0.60989312  0.95166092  0.19196053    -0.03400
C3826       C  0.64193727  0.95357332  0.19250148    -0.07800
C3827       C  0.65699391  0.98200691  0.19354808     0.05700
C3828       C  0.63894101  0.50902397  0.19480624    -0.02900
Br3829     Br  0.65578278  0.54928301  0.19801537    -0.02600
H3830       H  0.59369620  0.52822847  0.19488033     0.09600
H3831       H  0.65519103  0.93249101  0.19175118     0.07600
Br3832     Br  0.59299199  0.91111739  0.19015176    -0.03000
C3833       C  0.74184093  0.82237823  0.00750958    -0.09600
C3834       C  0.75904475  0.79965744  0.01512536     0.06600
C3835       C  0.77534558  0.77784552  0.00622473    -0.03400
C3836       C  0.77339051  0.77845553  0.99014458    -0.07800
C3837       C  0.75579081  0.80081022  0.98251873     0.05700
C3838       C  0.74005676  0.82312250  0.99138482    -0.02900
Br3839     Br  0.71374939  0.85358441  0.98228305    -0.02600
H3840       H  0.72887215  0.83903932  0.01413622     0.09600
H3841       H  0.78605583  0.76152057  0.98354075     0.07600
Br3842     Br  0.80201660  0.74759949  0.01524701    -0.03000
C3843       C  0.76614322  0.81111497  0.11695338    -0.09600
C3844       C  0.75198883  0.78839576  0.10793830     0.06600
C3845       C  0.73791500  0.76336889  0.11548437    -0.03400
C3846       C  0.73904127  0.76112879  0.13158007    -0.07800
C3847       C  0.75343710  0.78371920  0.14059958     0.05700
C3848       C  0.76705968  0.80900827  0.13305743    -0.02900
Br3849     Br  0.78913624  0.84049863  0.14386268    -0.02600
H3850       H  0.77728437  0.83036519  0.11141714     0.09600
H3851       H  0.72801399  0.74180331  0.13710996     0.07600
Br3852     Br  0.71493461  0.73251877  0.10466257    -0.03000
C3853       C  0.72915386  0.48300491  0.01020685    -0.09600
C3854       C  0.74215281  0.45821684  0.01829198     0.06600
C3855       C  0.75273472  0.93254650  0.00977401    -0.03400
C3856       C  0.75046486  0.93231818  0.99362752    -0.07800
C3857       C  0.73784405  0.45735618  0.98554945     0.05700
C3858       C  0.72671339  0.48273359  0.99412333    -0.02900
Br3859     Br  0.70633937  0.51733087  0.98489483    -0.02600
H3860       H  0.72036272  0.50260308  0.01642819     0.09600
H3861       H  0.75930349  0.91280538  0.98738265     0.07600
Br3862     Br  0.77233002  0.89782476  0.01925364    -0.03000
C3863       C  0.73799326  0.44614570  0.12023910    -0.09600
C3864       C  0.74541477  0.47209343  0.11137826     0.06600
C3865       C  0.75290005  0.99961486  0.11921965    -0.03400
C3866       C  0.75237196  0.00067635  0.13533889    -0.07800
C3867       C  0.74492353  0.47478921  0.14421034     0.05700
C3868       C  0.73768572  0.44716130  0.13638647    -0.02900
Br3869     Br  0.72635320  0.40992241  0.14672664    -0.02600
H3870       H  0.73212441  0.42477681  0.11457706     0.09600
H3871       H  0.75844566  0.02200722  0.14098492     0.07600
Br3872     Br  0.76558226  0.03655707  0.10901017    -0.03000
C3873       C  0.86354035  0.82029715  0.05676051    -0.09600
C3874       C  0.84826794  0.79508839  0.06322528     0.06600
C3875       C  0.86586612  0.77113206  0.06974361    -0.03400
C3876       C  0.89796733  0.77216928  0.06906227    -0.07800
C3877       C  0.91325273  0.79713623  0.06232675     0.05700
C3878       C  0.89559787  0.82161050  0.05629959    -0.02900
Br3879     Br  0.91335286  0.85681035  0.04650482    -0.02600
H3880       H  0.85043884  0.83895908  0.05174381     0.09600
H3881       H  0.91108219  0.75355129  0.07410801     0.07600
Br3882     Br  0.84770474  0.73762126  0.08076164    -0.03000
C3883       C  0.61428561  0.81781079  0.05224786    -0.09600
C3884       C  0.59838950  0.79423503  0.05978877     0.06600
C3885       C  0.61542279  0.77081432  0.06714240    -0.03400
C3886       C  0.64753016  0.77140104  0.06683155    -0.07800
C3887       C  0.66339065  0.79533000  0.05958792     0.05700
C3888       C  0.64642612  0.81876639  0.05221346    -0.02900
Br3889     Br  0.66562917  0.85179000  0.04123889    -0.02600
H3890       H  0.60161853  0.83536916  0.04613441     0.09600
H3891       H  0.66020835  0.75344376  0.07269565     0.07600
Br3892     Br  0.59650653  0.73850651  0.07871994    -0.03000
C3893       C  0.48761716  0.77861761  0.98922219    -0.09600
C3894       C  0.49955432  0.80446301  0.98163838     0.06600
C3895       C  0.01087575  0.82605194  0.99042076    -0.03400
C3896       C  0.01169288  0.82397282  0.00650243    -0.07800
C3897       C  0.50143886  0.79974497  0.01426391     0.05700
C3898       C  0.48820890  0.77613946  0.00528335    -0.02900
Br3899     Br  0.46929773  0.74042457  0.01404002    -0.02600
H3900       H  0.47755981  0.76009912  0.98260160     0.09600
H3901       H  0.02126818  0.84289058  0.01300930     0.07600
Br3902     Br  0.02676771  0.86299268  0.98154616    -0.03000
C3903       C  0.00405343  0.81432424  0.13304297    -0.09600
C3904       C  0.50896267  0.78487502  0.13988923     0.06600
C3905       C  0.51356932  0.75932867  0.13001104    -0.03400
C3906       C  0.51313314  0.76320541  0.11403487    -0.07800
C3907       C  0.50780629  0.79202040  0.10726381     0.05700
C3908       C  0.00318911  0.81800451  0.11699339    -0.02900
Br3909     Br  0.99305577  0.85822918  0.10946749    -0.02600
H3910       H  0.99980335  0.83419476  0.14025702     0.09600
H3911       H  0.51699279  0.74323415  0.10683667     0.07600
Br3912     Br  0.52086233  0.71815434  0.13711788    -0.03000
C3913       C  0.88649333  0.48442373  0.05736204    -0.09600
C3914       C  0.90184202  0.96068698  0.06515916     0.06600
C3915       C  0.88441511  0.93772959  0.07250921    -0.03400
C3916       C  0.85230692  0.93910416  0.07204602    -0.07800
C3917       C  0.83696384  0.96305952  0.06435445     0.05700
C3918       C  0.85446000  0.48563270  0.05676856    -0.02900
Br3919     Br  0.83648146  0.51750116  0.04439772    -0.02600
H3920       H  0.89941846  0.50173011  0.05139166     0.09600
H3921       H  0.83935811  0.92170223  0.07793011     0.07600
Br3922     Br  0.90266979  0.90486377  0.08411353    -0.03000
C3923       C  0.60154177  0.49016090  0.06316836    -0.09600
C3924       C  0.58670639  0.96155587  0.06256688     0.06600
C3925       C  0.60500636  0.93464189  0.06241039    -0.03400
C3926       C  0.63695583  0.93683470  0.06309709    -0.07800
C3927       C  0.65182634  0.96538597  0.06390636     0.05700
C3928       C  0.63359065  0.49238340  0.06382418    -0.02900
Br3929     Br  0.65014059  0.53320832  0.06478927    -0.02600
H3930       H  0.58813440  0.51115059  0.06331460     0.09600
H3931       H  0.65025405  0.91577335  0.06297523     0.07600
Br3932     Br  0.58867122  0.89383066  0.06121448    -0.03000
C3933       C  0.99313686  0.48466150  0.00912151    -0.09600
C3934       C  0.98845645  0.45720588  0.01725837     0.06600
C3935       C  0.48053251  0.92749843  0.00897682    -0.03400
C3936       C  0.47958274  0.92808771  0.99278667    -0.07800
C3937       C  0.48494905  0.95528171  0.98448419     0.05700
C3938       C  0.99166320  0.48587573  0.99304085    -0.02900
Br3939     Br  0.99867936  0.52554040  0.98404483    -0.02600
H3940       H  0.99826680  0.50564713  0.01531455     0.09600
H3941       H  0.47422215  0.90709608  0.98666255     0.07600
Br3942     Br  0.47005402  0.88952308  0.01872964    -0.03000
C3943       C  0.98841707  0.49428340  0.13455639    -0.09600
C3944       C  0.50076590  0.97023115  0.14315138     0.06600
C3945       C  0.51076941  0.94346728  0.13530431    -0.03400
C3946       C  0.50932902  0.94206223  0.11916635    -0.07800
C3947       C  0.99729390  0.46677901  0.11043968     0.05700
C3948       C  0.98633833  0.49290783  0.11848484    -0.02900
Br3949     Br  0.96629002  0.52691104  0.10855264    -0.02600
H3950       H  0.97968008  0.51453043  0.14037826     0.09600
H3951       H  0.51782533  0.92169893  0.11339398     0.07600
Br3952     Br  0.52757013  0.90828778  0.14568340    -0.03000
C3953       C  0.79134683  0.76095538  0.49190565    -0.09600
C3954       C  0.81415026  0.74518219  0.48360083     0.06600
C3955       C  0.83673860  0.72866069  0.49188405    -0.03400
C3956       C  0.83621478  0.72840181  0.50807281    -0.07800
C3957       C  0.81350162  0.74443504  0.51636349     0.05700
C3958       C  0.79094979  0.76094668  0.50803142    -0.02900
Br3959     Br  0.75995289  0.78564226  0.51786495    -0.02600
H3960       H  0.77394486  0.77392944  0.48580405     0.09600
H3961       H  0.85349231  0.71533131  0.51420585     0.07600
Br3962     Br  0.86755838  0.70425875  0.48179479    -0.03000
C3963       C  0.78816092  0.85581828  0.44602775    -0.09600
C3964       C  0.81154707  0.84035339  0.43797967     0.06600
C3965       C  0.83425014  0.85781480  0.43046710    -0.03400
C3966       C  0.83318716  0.88989821  0.43110909    -0.07800
C3967       C  0.80979548  0.90540591  0.43912516     0.05700
C3968       C  0.78719858  0.88794140  0.44677112    -0.02900
Br3969     Br  0.75549014  0.90611559  0.45920976    -0.02600
H3970       H  0.77075105  0.84281022  0.45203797     0.09600
H3971       H  0.85062063  0.90282984  0.42507197     0.07600
Br3972     Br  0.86613723  0.83962573  0.41824277    -0.03000
C3973       C  0.78613350  0.60577317  0.43179066    -0.09600
C3974       C  0.81087172  0.59044837  0.43879116     0.06600
C3975       C  0.83505370  0.60792519  0.44508579    -0.03400
C3976       C  0.83445060  0.63995227  0.44392192    -0.07800
C3977       C  0.80974552  0.65529859  0.43688543     0.05700
C3978       C  0.78530065  0.63782618  0.43081878    -0.02900
Br3979     Br  0.75076825  0.65592316  0.42043269    -0.02600
H3980       H  0.76743665  0.59271435  0.42684169     0.09600
H3981       H  0.85307431  0.65299926  0.44895608     0.07600
Br3982     Br  0.86802731  0.58986131  0.45667852    -0.03000
C3983       C  0.83938276  0.98082828  0.49298253    -0.09600
C3984       C  0.81663486  0.99842746  0.48556834     0.06600
C3985       C  0.79526079  0.51478003  0.49469420    -0.03400
C3986       C  0.79636945  0.51260533  0.51074747    -0.07800
C3987       C  0.81853349  0.99446306  0.51818361     0.05700
C3988       C  0.84024585  0.97842624  0.50911305    -0.02900
Br3989     Br  0.86934696  0.95036858  0.51795691    -0.02600
H3990       H  0.85579571  0.96787925  0.48619802     0.09600
H3991       H  0.77979946  0.52542575  0.51749842     0.07600
Br3992     Br  0.76475446  0.54174731  0.48609104    -0.03000
C3993       C  0.46897240  0.73695890  0.50675430    -0.09600
C3994       C  0.44374066  0.75139642  0.51392287     0.06600
C3995       C  0.92050908  0.76411385  0.50430802    -0.03400
C3996       C  0.92267655  0.76184893  0.48827672    -0.07800
C3997       C  0.44785865  0.74739163  0.48130347     0.05700
C3998       C  0.47122333  0.73483573  0.49068179    -0.02900
Br3999     Br  0.50597308  0.71306328  0.48243258    -0.02600
H4000       H  0.48696844  0.72681378  0.51369739     0.09600
H4001       H  0.90476653  0.77205223  0.48128868     0.07600
Br4002     Br  0.88644158  0.78684910  0.51217636    -0.03000
C4003       C  0.46983703  0.88812159  0.42838388    -0.09600
C4004       C  0.94620134  0.90267833  0.43708844     0.06600
C4005       C  0.92483881  0.88446138  0.44506522    -0.03400
C4006       C  0.92679857  0.85241500  0.44416046    -0.07800
C4007       C  0.94976171  0.83781980  0.43539564     0.05700
C4008       C  0.47161171  0.85602635  0.42739849    -0.02900
Br4009     Br  0.50223479  0.83858412  0.41407347    -0.02600
H4010       H  0.48627949  0.90180682  0.42206909     0.09600
H4011       H  0.91035149  0.83876443  0.45049677     0.07600
Br4012     Br  0.89386864  0.90186631  0.45820706    -0.03000
C4013       C  0.92417677  0.60328922  0.42977432    -0.09600
C4014       C  0.94617858  0.58781596  0.43870841     0.06600
C4015       C  0.46850596  0.60526264  0.44651620    -0.03400
C4016       C  0.46893482  0.63728142  0.44502208    -0.07800
C4017       C  0.94716330  0.65270187  0.43597744     0.05700
C4018       C  0.92428129  0.63531259  0.42845903    -0.02900
Br4019     Br  0.89340779  0.65345682  0.41554869    -0.02600
H4020       H  0.90685938  0.59035442  0.42360357     0.09600
H4021       H  0.48620961  0.65025316  0.45120319     0.07600
Br4022     Br  0.49809568  0.58719872  0.46021704    -0.03000
C4023       C  0.91899486  0.01737021  0.49184202    -0.09600
C4024       C  0.43569889  0.99384268  0.48446767     0.06600
C4025       C  0.45032093  0.47140067  0.49353540    -0.03400
C4026       C  0.45003052  0.47397884  0.50958094    -0.07800
C4027       C  0.43473570  0.99833861  0.51688379     0.05700
C4028       C  0.91849559  0.01978502  0.50794626    -0.02900
Br4029     Br  0.89779417  0.05425601  0.51711001    -0.02600
H4030       H  0.90747745  0.03472078  0.48499303     0.09600
H4031       H  0.46174391  0.45673852  0.51641309     0.07600
Br4032     Br  0.46976982  0.43603618  0.48452548    -0.03000
C4033       C  0.75469244  0.73830019  0.25761217    -0.09600
C4034       C  0.77378248  0.75910449  0.26538915     0.06600
C4035       C  0.78749756  0.78304525  0.25695502    -0.03400
C4036       C  0.78188666  0.78584302  0.24109891    -0.07800
C4037       C  0.76328909  0.76463896  0.23319346     0.05700
C4038       C  0.74974897  0.74054816  0.24167327    -0.02900
Br4039     Br  0.72325779  0.71068606  0.23235972    -0.02600
H4040       H  0.74383165  0.71993431  0.26395167     0.09600
H4041       H  0.79255551  0.80446554  0.23486962     0.07600
Br4042     Br  0.81290389  0.81341334  0.26665756    -0.03000
C4043       C  0.82366454  0.73774073  0.36435116    -0.09600
C4044       C  0.79693851  0.75046618  0.35778907     0.06600
C4045       C  0.77480034  0.76354025  0.36777768    -0.03400
C4046       C  0.77915005  0.76270828  0.38375447    -0.07800
C4047       C  0.80549615  0.74946656  0.39037236     0.05700
C4048       C  0.82806622  0.73702734  0.38040091    -0.02900
Br4049     Br  0.86441533  0.71691160  0.38783741    -0.02600
H4050       H  0.84104840  0.72765719  0.35695851     0.09600
H4051       H  0.76176673  0.77295156  0.39109287     0.07600
Br4052     Br  0.73888006  0.78476975  0.36050659    -0.03000
C4053       C  0.80888477  0.89466806  0.31504658    -0.09600
C4054       C  0.78037664  0.90995642  0.31508292     0.06600
C4055       C  0.75334992  0.89208172  0.31457696    -0.03400
C4056       C  0.75547830  0.85997383  0.31408447    -0.07800
C4057       C  0.78405445  0.84477087  0.31391761     0.05700
C4058       C  0.81102790  0.86268450  0.31443112    -0.02900
Br4059     Br  0.85183611  0.84573309  0.31437253    -0.02600
H4060       H  0.82999168  0.90769004  0.31541145     0.09600
H4061       H  0.73443793  0.84683137  0.31362663     0.07600
Br4062     Br  0.71269954  0.90932697  0.31403417    -0.03000
C4063       C  0.76133788  0.61072594  0.30484581    -0.09600
C4064       C  0.78567415  0.59499637  0.31195605     0.06600
C4065       C  0.81098761  0.61195314  0.31750237    -0.03400
C4066       C  0.81118048  0.64398413  0.31615176    -0.07800
C4067       C  0.78642379  0.65975539  0.30944870     0.05700
C4068       C  0.76163248  0.64273763  0.30342581    -0.02900
Br4069     Br  0.72844541  0.66166494  0.29233488    -0.02600
H4070       H  0.74215599  0.59799326  0.30013768     0.09600
H4071       H  0.83032660  0.65672446  0.32089068     0.07600
Br4072     Br  0.84487125  0.59316466  0.32812816    -0.03000
C4073       C  0.77980767  0.97188944  0.24391749    -0.09600
C4074       C  0.75848855  0.49123804  0.23659980     0.06600
C4075       C  0.74232182  0.51312979  0.24547831    -0.03400
C4076       C  0.74801360  0.51557234  0.26130074    -0.07800
C4077       C  0.76997709  0.49681053  0.26852164     0.05700
C4078       C  0.78573759  0.97456969  0.25969929    -0.02900
Br4079     Br  0.81404008  0.94587793  0.26874617    -0.02600
H4080       H  0.79219506  0.95473749  0.23729007     0.09600
H4081       H  0.73524945  0.53232100  0.26800816     0.07600
Br4082     Br  0.71092480  0.53894845  0.23685961    -0.03000
C4083       C  0.77706931  0.48553245  0.38595132    -0.09600
C4084       C  0.80205905  0.00056807  0.39284648     0.06600
C4085       C  0.82221343  0.01748494  0.38339360    -0.03400
C4086       C  0.81757666  0.01829896  0.36740620    -0.07800
C4087       C  0.79278881  0.50291664  0.36051871     0.05700
C4088       C  0.77230346  0.48652432  0.37002559    -0.02900
Br4089     Br  0.73821420  0.46357052  0.36202868    -0.02600
H4090       H  0.76128643  0.47254030  0.39298643     0.09600
H4091       H  0.83301801  0.03163216  0.36034984     0.07600
Br4092     Br  0.85483562  0.04205887  0.39167211    -0.03000
C4093       C  0.50702359  0.74749569  0.25735399    -0.09600
C4094       C  0.48112506  0.76168116  0.26399580     0.06600
C4095       C  0.96193020  0.78016872  0.25435842    -0.03400
C4096       C  0.96904759  0.78388933  0.23871269    -0.07800
C4097       C  0.49463679  0.76884664  0.23223398     0.05700
C4098       C  0.51363089  0.75060236  0.24164648    -0.02900
Br4099     Br  0.54973498  0.73068978  0.23376170    -0.02600
H4100       H  0.52223662  0.73371944  0.26442460     0.09600
H4101       H  0.95416113  0.79791398  0.23158331     0.07600
Br4102     Br  0.92646238  0.80154407  0.26206614    -0.03000
C4103       C  0.47292255  0.72608205  0.38083046    -0.09600
C4104       C  0.45180840  0.74534073  0.38839155     0.06600
C4105       C  0.93288218  0.76509342  0.37936125    -0.03400
C4106       C  0.93554061  0.76525793  0.36327728    -0.07800
C4107       C  0.45731906  0.74634160  0.35590018     0.05700
C4108       C  0.47574968  0.72636362  0.36477149    -0.02900
Br4109     Br  0.50414740  0.69789721  0.35556558    -0.02600
H4110       H  0.48724402  0.71060761  0.38745039     0.09600
H4111       H  0.92133043  0.78083275  0.35665467     0.07600
Br4112     Br  0.90528620  0.79425685  0.38850596    -0.03000
C4113       C  0.94291770  0.86255254  0.31507656    -0.09600
C4114       C  0.97082198  0.84647536  0.31373305     0.06600
C4115       C  0.49872096  0.86297329  0.31345878    -0.03400
C4116       C  0.49782461  0.89506403  0.31400713    -0.07800
C4117       C  0.96961642  0.91159960  0.31522864     0.05700
C4118       C  0.94202559  0.89461312  0.31602247    -0.02900
Br4119     Br  0.90223925  0.91305600  0.31895203    -0.02600
H4120       H  0.92153045  0.85011325  0.31550063     0.09600
H4121       H  0.51921751  0.90751114  0.31324482     0.07600
Br4122     Br  0.53881468  0.84463786  0.31185333    -0.03000
C4123       C  0.94460168  0.61130534  0.30470109    -0.09600
C4124       C  0.96995184  0.59668873  0.31162897     0.06600
C4125       C  0.49361107  0.61459738  0.31760618    -0.03400
C4126       C  0.49218582  0.64648922  0.31608297    -0.07800
C4127       C  0.96722925  0.66159205  0.30902272     0.05700
C4128       C  0.94284758  0.64333491  0.30349331    -0.02900
Br4129     Br  0.90672587  0.66010211  0.29393882    -0.02600
H4130       H  0.92592132  0.59773038  0.30009817     0.09600
H4131       H  0.51075743  0.66000035  0.32084713     0.07600
Br4132     Br  0.52773761  0.59836823  0.32906819    -0.03000
C4133       C  0.50420002  0.51575323  0.25983800    -0.09600
C4134       C  0.48388981  0.99622553  0.26760743     0.06600
C4135       C  0.96949189  0.97227024  0.25958832    -0.03400
C4136       C  0.97449322  0.96879740  0.24376512    -0.07800
C4137       C  0.49363009  0.98949135  0.23559121     0.05700
C4138       C  0.50900564  0.51273334  0.24394317    -0.02900
Br4139     Br  0.53804136  0.53983253  0.23447022    -0.02600
H4140       H  0.51613878  0.53360514  0.26612568     0.09600
H4141       H  0.96289662  0.95045087  0.23767927     0.07600
Br4142     Br  0.94424234  0.94244613  0.26971268    -0.03000
C4143       C  0.98495346  0.50755055  0.36892100    -0.09600
C4144       C  0.45888482  0.00410542  0.35946649     0.06600
C4145       C  0.43035908  0.99871797  0.36673990    -0.03400
C4146       C  0.42880502  0.99648577  0.38281501    -0.07800
C4147       C  0.45509943  0.99942876  0.39212211     0.05700
C4148       C  0.98342993  0.50513303  0.38495382    -0.02900
Br4149     Br  0.02163697  0.50984119  0.39578416    -0.02600
H4150       H  0.00713516  0.51168816  0.36371046     0.09600
H4151       H  0.40670388  0.99208504  0.38804990     0.07600
Br4152     Br  0.39260848  0.99297090  0.35568352    -0.03000
C4153       C  0.76509797  0.81196802  0.86423412    -0.09600
C4154       C  0.74726252  0.78906849  0.85718135     0.06600
C4155       C  0.72945581  0.76959899  0.86657763    -0.03400
C4156       C  0.73064930  0.77245921  0.88261313    -0.07800
C4157       C  0.74899387  0.79482015  0.88969251     0.05700
C4158       C  0.76620725  0.81488530  0.88033144    -0.02900
Br4159     Br  0.79369902  0.84482060  0.88886323    -0.02600
H4160       H  0.77911607  0.82690821  0.85723531     0.09600
H4161       H  0.71688643  0.75725243  0.88960407     0.07600
Br4162     Br  0.70174352  0.73965614  0.85822029    -0.03000
C4163       C  0.73090801  0.93427066  0.86648065    -0.09600
C4164       C  0.74151517  0.46124634  0.85931540     0.06600
C4165       C  0.75132943  0.48574295  0.86889071    -0.03400
C4166       C  0.75006469  0.48299758  0.88494044    -0.07800
C4167       C  0.73929417  0.45624877  0.89211647     0.05700
C4168       C  0.72952140  0.93164555  0.88263038    -0.02900
Br4169     Br  0.71211583  0.89473436  0.89087113    -0.02600
H4170       H  0.72298841  0.91525028  0.85948397     0.09600
H4171       H  0.75793644  0.50208978  0.89190843     0.07600
Br4172     Br  0.76794394  0.52353853  0.86117124    -0.03000
C4173       C  0.85984014  0.75293739  0.82071124    -0.09600
C4174       C  0.84393070  0.77455776  0.81171535     0.06600
C4175       C  0.86088662  0.79499732  0.80245421    -0.03400
C4176       C  0.89290419  0.79397429  0.80263553    -0.07800
C4177       C  0.90882970  0.77256646  0.81168523     0.05700
C4178       C  0.89198939  0.75182173  0.82080472    -0.02900
Br4179     Br  0.91135590  0.72288209  0.83434385    -0.02600
H4180       H  0.84721429  0.73713092  0.82792425     0.09600
H4181       H  0.90548906  0.80970626  0.79535277     0.07600
Br4182     Br  0.84210633  0.82338660  0.78838720    -0.03000
C4183       C  0.64322322  0.80460549  0.80984554    -0.09600
C4184       C  0.65893669  0.77640817  0.80858583     0.06600
C4185       C  0.64157475  0.74940878  0.80626881    -0.03400
C4186       C  0.60953460  0.75097628  0.80588098    -0.07800
C4187       C  0.59372557  0.77899573  0.80755557     0.05700
C4188       C  0.61109847  0.80621758  0.80930994    -0.02900
Br4189     Br  0.59311177  0.84639733  0.81154303    -0.02600
H4190       H  0.65598082  0.82568061  0.81148133     0.09600
H4191       H  0.59686965  0.72985869  0.80421209     0.07600
Br4192     Br  0.65949996  0.70950930  0.80295608    -0.03000
C4193       C  0.51173497  0.81599789  0.86236608    -0.09600
C4194       C  0.50463472  0.78708874  0.85598293     0.06600
C4195       C  0.99704593  0.75971298  0.86595940    -0.03400
C4196       C  0.99774049  0.76426467  0.88190030    -0.07800
C4197       C  0.50530271  0.79648478  0.88852414     0.05700
C4198       C  0.51224537  0.82086740  0.87837979    -0.02900
Br4199     Br  0.52365087  0.86105712  0.88541495    -0.02600
H4200       H  0.51721849  0.83501879  0.85485158     0.09600
H4201       H  0.99201365  0.74505365  0.88924602     0.07600
Br4202     Br  0.98470038  0.71959515  0.85910897    -0.03000
C4203       C  0.85151489  0.49011273  0.82108713    -0.09600
C4204       C  0.83562476  0.96642105  0.81356383     0.06600
C4205       C  0.85275132  0.94257147  0.80651185    -0.03400
C4206       C  0.88485690  0.94305043  0.80697973    -0.07800
C4207       C  0.90074900  0.46700837  0.81426170     0.05700
C4208       C  0.88365530  0.49047442  0.82162988    -0.02900
Br4209     Br  0.90247174  0.52265126  0.83345128    -0.02600
H4210       H  0.83883042  0.50824249  0.82683916     0.09600
H4211       H  0.89750151  0.92490450  0.80121938     0.07600
Br4212     Br  0.83415047  0.90970679  0.79509399    -0.03000
C4213       C  0.63422807  0.48615712  0.82161349    -0.09600
C4214       C  0.65061578  0.96850265  0.81088447     0.06600
C4215       C  0.63428202  0.95033797  0.80019858    -0.03400
C4216       C  0.60211702  0.94977868  0.80057140    -0.07800
C4217       C  0.58572595  0.46734362  0.81137009     0.05700
C4218       C  0.60212457  0.48555270  0.82202313    -0.02900
Br4219     Br  0.58212479  0.50808517  0.83822237    -0.02600
H4220       H  0.64648839  0.49984203  0.83003953     0.09600
H4221       H  0.58985132  0.93597302  0.79220068     0.07600
Br4222     Br  0.65463092  0.92750627  0.78422404    -0.03000
C4223       C  0.51013550  0.47906463  0.86741414    -0.09600
C4224       C  0.49601809  0.95616431  0.85851726     0.06600
C4225       C  0.98266972  0.93388556  0.86624377    -0.03400
C4226       C  0.98163413  0.93383526  0.88241465    -0.07800
C4227       C  0.49406328  0.95444099  0.89124786     0.05700
C4228       C  0.50960430  0.47824677  0.88353554    -0.02900
Br4229     Br  0.53200125  0.50969526  0.89423309    -0.02600
H4230       H  0.52184494  0.49781677  0.86176979     0.09600
H4231       H  0.97028926  0.91503000  0.88820485     0.07600
Br4232     Br  0.96311345  0.90038823  0.85574470    -0.03000
C4233       C  0.78207943  0.73324484  0.74391297    -0.09600
C4234       C  0.76427298  0.74984348  0.73331649     0.06600
C4235       C  0.74279901  0.77156256  0.73898561    -0.03400
C4236       C  0.74017219  0.77676727  0.75489504    -0.07800
C4237       C  0.75794141  0.76003494  0.76546013     0.05700
C4238       C  0.77881397  0.73780069  0.75980175    -0.02900
Br4239     Br  0.80495033  0.71422698  0.77314880    -0.02600
H4240       H  0.79875289  0.71659343  0.73980044     0.09600
H4241       H  0.72398645  0.79386046  0.75904261     0.07600
Br4242     Br  0.71770271  0.79615366  0.72561219    -0.03000
C4243       C  0.82080284  0.75668864  0.63557654    -0.09600
C4244       C  0.79713386  0.73871592  0.64185353     0.06600
C4245       C  0.77863936  0.72135038  0.63175079    -0.03400
C4246       C  0.78370110  0.72250507  0.61584702    -0.07800
C4247       C  0.80689342  0.74090401  0.60949664     0.05700
C4248       C  0.82544984  0.75831087  0.61956808    -0.02900
Br4249     Br  0.85503110  0.78715260  0.61209821    -0.02600
H4250       H  0.83490132  0.77060916  0.64311294     0.09600
H4251       H  0.76924040  0.70887407  0.60834543     0.07600
Br4252     Br  0.74675708  0.69464844  0.63895505    -0.03000
C4253       C  0.80693076  0.88358816  0.69185957    -0.09600
C4254       C  0.78022264  0.89916279  0.68712556     0.06600
C4255       C  0.75464327  0.88173299  0.68228323    -0.03400
C4256       C  0.75631972  0.84974250  0.68231521    -0.07800
C4257       C  0.78294834  0.83414222  0.68708830     0.05700
C4258       C  0.80856214  0.85154420  0.69195372    -0.02900
Br4259     Br  0.84636891  0.83390294  0.69931055    -0.02600
H4260       H  0.82677761  0.89639874  0.69572681     0.09600
H4261       H  0.73638670  0.83697659  0.67852319     0.07600
Br4262     Br  0.71658284  0.89924158  0.67521680    -0.03000
C4263       C  0.75196063  0.59985532  0.68995530    -0.09600
C4264       C  0.78018223  0.58407993  0.68980772     0.06600
C4265       C  0.80756158  0.60133182  0.68907234    -0.03400
C4266       C  0.80615150  0.63336580  0.68876304    -0.07800
C4267       C  0.77798055  0.64921223  0.68899923     0.05700
C4268       C  0.75053754  0.63195086  0.68954691    -0.02900
Br4269     Br  0.71018601  0.64997394  0.69004572    -0.02600
H4270       H  0.73064388  0.58713506  0.69045504     0.09600
H4271       H  0.82751322  0.64596976  0.68813794     0.07600
Br4272     Br  0.84783858  0.58330559  0.68770246    -0.03000
C4273       C  0.76821450  0.95586963  0.75845464    -0.09600
C4274       C  0.74833641  0.47602531  0.76624649     0.06600
C4275       C  0.73317327  0.49916933  0.75767476    -0.03400
C4276       C  0.73896379  0.50233845  0.74181672    -0.07800
C4277       C  0.76009549  0.48305848  0.73425340     0.05700
C4278       C  0.77422836  0.95924662  0.74270079    -0.02900
Br4279     Br  0.80086130  0.92963123  0.73311203    -0.02600
H4280       H  0.77974278  0.93770387  0.76472623     0.09600
H4281       H  0.72733295  0.52029053  0.73543421     0.07600
Br4282     Br  0.70332741  0.52613932  0.76682824    -0.03000
C4283       C  0.82585480  0.98145649  0.63742002    -0.09600
C4284       C  0.79967188  0.99625150  0.64348528     0.06600
C4285       C  0.77981667  0.51168039  0.63322201    -0.03400
C4286       C  0.78523785  0.51060505  0.61737776    -0.07800
C4287       C  0.81058258  0.99487182  0.61119811     0.05700
C4288       C  0.83144696  0.98063524  0.62144634    -0.02900
Br4289     Br  0.86643620  0.95772401  0.61433577    -0.02600
H4290       H  0.84151817  0.96960166  0.64508198     0.09600
H4291       H  0.76936518  0.52236706  0.60979100     0.07600
Br4292     Br  0.74560055  0.53610877  0.64005374    -0.03000
C4293       C  0.97143992  0.78449941  0.75586410    -0.09600
C4294       C  0.49139721  0.76554071  0.76363080     0.06600
C4295       C  0.50602528  0.74219942  0.75497130    -0.03400
C4296       C  0.49945826  0.73877308  0.73923490    -0.07800
C4297       C  0.47817840  0.75804394  0.73182220     0.05700
C4298       C  0.96485559  0.78110609  0.74014628    -0.02900
Br4299     Br  0.93811822  0.81084745  0.73078046    -0.02600
H4300       H  0.96014596  0.80269163  0.76228429     0.09600
H4301       H  0.51112849  0.72094888  0.73272476     0.07600
Br4302     Br  0.53674124  0.71575228  0.76371258    -0.03000
C4303       C  0.46977180  0.76802868  0.61415091    -0.09600
C4304       C  0.44533628  0.75238418  0.60713463     0.06600
C4305       C  0.92425931  0.73644351  0.61643810    -0.03400
C4306       C  0.92787696  0.73693537  0.63253761    -0.07800
C4307       C  0.45257352  0.75262771  0.63969873     0.05700
C4308       C  0.47357054  0.76831110  0.63014509    -0.02900
Br4309     Br  0.50728992  0.79190353  0.63808295    -0.02600
H4310       H  0.48613832  0.78031937  0.60710893     0.09600
H4311       H  0.91178019  0.72439106  0.63961303     0.07600
Br4312     Br  0.89222567  0.71132030  0.60804034    -0.03000
C4313       C  0.49001874  0.89305288  0.69130586    -0.09600
C4314       C  0.46423376  0.90915445  0.68589124     0.06600
C4315       C  0.93929897  0.89175070  0.67983654    -0.03400
C4316       C  0.94023383  0.85962646  0.67990089    -0.07800
C4317       C  0.96609825  0.84363450  0.68535863     0.05700
C4318       C  0.49076751  0.86098769  0.69144439    -0.02900
Br4319     Br  0.52615766  0.84191202  0.70061343    -0.02600
H4320       H  0.50951595  0.90549771  0.69586334     0.09600
H4321       H  0.92069079  0.84706448  0.67547496     0.07600
Br4322     Br  0.90331351  0.91088735  0.67128117    -0.03000
C4323       C  0.93901531  0.60881064  0.68594377    -0.09600
C4324       C  0.46652675  0.59410265  0.68958294     0.06600
C4325       C  0.49316614  0.61189209  0.69205144    -0.03400
C4326       C  0.49162676  0.64394405  0.69096494    -0.07800
C4327       C  0.96426606  0.65856722  0.68732329     0.05700
C4328       C  0.93765711  0.64084608  0.68466778    -0.02900
Br4329     Br  0.89921175  0.65836709  0.67818878    -0.02600
H4330       H  0.91846726  0.59568593  0.68357818     0.09600
H4331       H  0.51226475  0.65710698  0.69310561     0.07600
Br4332     Br  0.53225077  0.59441848  0.69747570    -0.03000
C4333       C  0.96007018  0.96821748  0.74146613    -0.09600
C4334       C  0.97865719  0.48986191  0.73396664     0.06600
C4335       C  0.50221621  0.50496342  0.74285625    -0.03400
C4336       C  0.50539985  0.49898119  0.75865813    -0.07800
C4337       C  0.48641452  0.97774530  0.76613195     0.05700
C4338       C  0.96409166  0.96154269  0.75714388    -0.02900
Br4339     Br  0.93768490  0.93132928  0.76616689    -0.02600
H4340       H  0.94260447  0.95603628  0.73503403     0.09600
H4341       H  0.52301768  0.51085951  0.76512682     0.07600
Br4342     Br  0.53003974  0.53380846  0.73381606    -0.03000
C4343       C  0.92541773  0.51561332  0.61846704    -0.09600
C4344       C  0.44950021  0.00422113  0.60946147     0.06600
C4345       C  0.47620002  0.99328928  0.61694976    -0.03400
C4346       C  0.47825010  0.99414417  0.63302525    -0.07800
C4347       C  0.95425867  0.50526502  0.64202738     0.05700
C4348       C  0.92739527  0.51612065  0.63460561    -0.02900
Br4349     Br  0.89294256  0.53297520  0.64557973    -0.02600
H4350       H  0.90481006  0.52433761  0.61300723     0.09600
H4351       H  0.49889999  0.98532827  0.63840346     0.07600
Br4352     Br  0.51010195  0.97481207  0.60616611    -0.03000
loop_ 
_geom_bond_atom_site_label_1 
_geom_bond_atom_site_label_2 
_geom_bond_distance 
_geom_bond_site_symmetry_2 
_ccdc_geom_bond_type 
O1         V1097   1.904       .  S
O1         C3275   1.265       .  A
O2            V9   1.900       .  S
O2         C2188   1.266       .  A
O3            V9   1.901       .  S
O3           C13   1.264       .  A
O4         V1097   1.898       .  S
O4           C14   1.265       .  A
O5         V1098   1.895       .  S
O5         C2190   1.262       .  A
O6           V10   1.901       .  S
O6         C2189   1.266       .  A
O7         V1098   1.911       .  S
O7         C1100   1.266       .  A
O8           V10   1.913   1_565  S
O8           C11   1.268       .  A
V9         O1089   1.904   1_545  S
V9         O1092   1.898   1_545  S
V9         V2186   2.084       .  T
V10        O1093   1.895   1_545  S
V10        O1095   1.911       .  S
V10        V2185   2.083       .  T
C11        O3265   1.265       .  A
C11        C1070   1.491       .  S
C12        O2178   1.266       .  A
C12        O1095   1.266       .  A
C12        C1083   1.495       .  S
C13        O2182   1.266       .  A
C13        C1060   1.487       .  S
C14        O2181   1.263       .  A
C14        C1050   1.478       .  S
O15          V23   1.913       .  S
O15        C2201   1.268       .  A
O16          V23   1.916       .  S
O16        C2202   1.268       .  A
O17          V23   1.902       .  S
O17          C27   1.265       .  A
O18          V23   1.897       .  S
O18          C28   1.264       .  A
O19          V24   1.898       .  S
O19        C2204   1.264       .  A
O20          V24   1.900       .  S
O20        C2203   1.266       .  A
O21          V24   1.901       .  S
O21          C26   1.265       .  A
O22          V24   1.902       .  S
O22          C25   1.264       .  A
V23        V2200   2.084       .  T
V24        V2199   2.084       .  T
C25        O2191   1.268       .  A
C25        C1033   1.485       .  S
C26        O2192   1.268       .  A
C26        C1043   1.491       .  S
C27        O2196   1.265       .  A
C27        C1063   1.486       .  S
C28        O2195   1.264       .  A
C28        C1053   1.478       .  S
O29        V1125   1.915       .  S
O29        C1127   1.267       .  A
O30          V37   1.910       .  S
O30          C40   1.267       .  A
O31          V37   1.893       .  S
O31          C41   1.264       .  A
O32        V1125   1.897   1_545  S
O32          C42   1.263       .  A
O33        V1126   1.895   1_545  S
O33          C42   1.264       .  A
O34          V38   1.894       .  S
O34          C41   1.262       .  A
O35        V1126   1.915       .  S
O35        C1128   1.267       .  A
O36          V38   1.907       .  S
O36          C39   1.267       .  A
V37        O1117   1.915       .  S
V37        O1120   1.897       .  S
V37          V38   2.084       .  T
V38        O1121   1.895       .  S
V38        O1123   1.915       .  S
C39        O1117   1.267       .  A
C39        C1020   1.494       .  S
C40        O1123   1.267       .  A
C40        C2101   1.491       .  S
C41         C990   1.482       .  S
C42        C1000   1.483       .  S
O43          V51   1.906       .  S
O43          C53   1.265       .  A
O44          V51   1.905       .  S
O44          C54   1.266       .  A
O45          V51   1.898       .  S
O45          C55   1.263       .  A
O46          V51   1.893       .  S
O46          C56   1.265       .  A
O47          V52   1.894       .  S
O47          C56   1.262       .  A
O48          V52   1.895       .  S
O48          C55   1.265       .  A
O49          V52   1.912       .  S
O49          C54   1.266       .  A
O50          V52   1.908       .  S
O50          C53   1.267       .  A
V51          V52   2.083       .  T
C53         C970   1.487       .  S
C54         C980   1.489       .  S
C55        C1003   1.485       .  S
C56         C993   1.482       .  S
O57        V2241   1.907       .  S
O57        C3331   1.266       .  A
O58          V65   1.903       .  S
O58        C1156   1.266       .  A
O59          V65   1.896   1_455  S
O59          C69   1.263       .  A
O60        V2241   1.899       .  S
O60          C70   1.264       .  A
O61        V2242   1.904       .  S
O61        C1158   1.266       .  A
O62          V66   1.908   1_455  S
O62        C1157   1.266       .  A
O63        V2242   1.911       .  S
O63        C2244   1.267       .  A
O64          V66   1.910       .  S
O64          C67   1.266       .  A
V65        O2233   1.906       .  S
V65        O2236   1.899       .  S
V65        V1154   2.085       .  T
V66        O2237   1.903       .  S
V66        O2239   1.911       .  S
V66        V1153   2.085       .  T
C67        O3321   1.266       .  A
C67        C1073   1.486       .  S
C68        O1146   1.266       .  A
C68        O2239   1.267       .  A
C68         C960   1.492       .  S
C69        O1150   1.266       .  A
C69         C953   1.478       .  S
C70        O1149   1.266       .  A
C70         C943   1.486       .  S
O71        V2255   1.908       .  S
O71        C2257   1.267       .  A
O72          V79   1.910       .  S
O72          C82   1.267       .  A
O73          V79   1.901       .  S
O73          C83   1.263       .  A
O74        V2255   1.895       .  S
O74          C84   1.264       .  A
O75        V2256   1.902       .  S
O75          C84   1.264       .  A
O76          V80   1.901       .  S
O76          C83   1.266       .  A
O77        V2256   1.903       .  S
O77        C2258   1.265       .  A
O78          V80   1.907   1_655  S
O78          C81   1.266       .  A
V79        O2247   1.908   1_455  S
V79        O2250   1.893   1_455  S
V79          V80   2.084       .  T
V80        O2251   1.903   1_455  S
V80        O2253   1.903       .  S
C81        O2247   1.267       .  A
C81        C1030   1.488       .  S
C82        O2253   1.265       .  A
C82         C930   1.495       .  S
C83         C923   1.490       .  S
C84         C913   1.478       .  S
O85          V93   1.921       .  S
O85        C1183   1.270       .  A
O86          V93   1.914       .  S
O86        C1184   1.269       .  A
O87          V93   1.897       .  S
O87          C97   1.263       .  A
O88          V93   1.898       .  S
O88          C98   1.263       .  A
O89          V94   1.904       .  S
O89        C1186   1.266       .  A
O90          V94   1.907       .  S
O90        C1185   1.267       .  A
O91          V94   1.909       .  S
O91          C96   1.266       .  A
O92          V94   1.903       .  S
O92          C95   1.265       .  A
V93        V1182   2.083       .  T
V94        V1181   2.083       .  T
C95        O1173   1.270       .  A
C95         C900   1.502       .  S
C96        O1174   1.269       .  A
C96        C1010   1.494       .  S
C97        O1178   1.267       .  A
C97         C940   1.486       .  S
C98        O1177   1.266       .  A
C98         C950   1.478       .  S
O99         V107   1.897       .  S
O99         C109   1.263       .  A
O100        V107   1.899       .  S
O100        C110   1.263       .  A
O101        V107   1.902       .  S
O101        C111   1.265       .  A
O102        V107   1.899       .  S
O102        C112   1.264       .  A
O103        V108   1.900       .  S
O103        C112   1.265       .  A
O104        V108   1.897       .  S
O104        C111   1.264       .  A
O105        V108   1.912       .  S
O105        C110   1.267       .  A
O106        V108   1.914       .  S
O106        C109   1.267       .  A
V107        V108   2.084       .  T
C109        C890   1.485       .  S
C110        C973   1.484       .  S
C111        C910   1.480       .  S
C112        C920   1.488       .  S
O113       V1209   1.905       .  S
O113       C3387   1.265       .  A
O114        V121   1.904       .  S
O114       C2300   1.266       .  A
O115        V121   1.888       .  S
O115        C125   1.260       .  A
O116       V1209   1.894       .  S
O116        C126   1.263       .  A
O117       V1210   1.903       .  S
O117       C2302   1.265       .  A
O118        V122   1.904       .  S
O118       C2301   1.267       .  A
O119       V1210   1.902   1_455  S
O119       C1212   1.263   1_455  A
O120        V122   1.897       .  S
O120        C123   1.265       .  A
V121       O1201   1.905       .  S
V121       O1204   1.894       .  S
V121       V2298   2.084       .  T
V122       O1205   1.903       .  S
V122       O1207   1.902   1_655  S
V122       V2297   2.083       .  T
C123       O3377   1.265       .  A
C123        C880   1.493       .  S
C124       O2290   1.266       .  A
C124       O1207   1.263   1_655  A
C124        C870   1.478       .  S
C125       O2294   1.267       .  A
C125        C853   1.484       .  S
C126       O2293   1.265       .  A
C126        C860   1.485       .  S
O127        V135   1.908       .  S
O127       C2313   1.266       .  A
O128        V135   1.912       .  S
O128       C2314   1.267       .  A
O129        V135   1.907       .  S
O129        C139   1.266       .  A
O130        V135   1.903       .  S
O130        C140   1.267       .  A
O131        V136   1.893       .  S
O131       C2316   1.261       .  A
O132        V136   1.889       .  S
O132       C2315   1.263       .  A
O133        V136   1.902       .  S
O133        C138   1.265       .  A
O134        V136   1.899       .  S
O134        C137   1.264       .  A
V135       V2312   2.084       .  T
V136       V2311   2.084       .  T
C137       O2303   1.266       .  A
C137        C843   1.482       .  S
C138       O2304   1.267       .  A
C138        C830   1.490       .  S
C139       O2308   1.263       .  A
C139        C863   1.485       .  S
C140       O2307   1.262       .  A
C140        C850   1.487       .  S
O141       V1237   1.908       .  S
O141       C1239   1.267       .  A
O142        V149   1.905   1_565  S
O142        C152   1.266   1_565  A
O143        V149   1.894       .  S
O143        C153   1.262       .  A
O144       V1237   1.890       .  S
O144        C154   1.264       .  A
O145       V1238   1.907       .  S
O145        C154   1.266       .  A
O146        V150   1.906       .  S
O146        C153   1.267       .  A
O147       V1238   1.896       .  S
O147       C1240   1.263       .  A
O148        V150   1.898       .  S
O148        C151   1.264       .  A
V149       O1229   1.908       .  S
V149       O1232   1.890   1_545  S
V149        V150   2.085       .  T
V150       O1233   1.907   1_545  S
V150       O1235   1.896       .  S
C151       O1229   1.267       .  A
C151        C823   1.485       .  S
C152       O1235   1.263       .  A
C152        C813   1.476   1_545  S
C153        C800   1.480       .  S
C154        C790   1.489       .  S
O155        V163   1.907       .  S
O155        C165   1.265       .  A
O156        V163   1.907       .  S
O156        C166   1.266       .  A
O157        V163   1.899       .  S
O157        C167   1.265       .  A
O158        V163   1.896       .  S
O158        C168   1.263       .  A
O159        V164   1.904       .  S
O159        C168   1.266       .  A
O160        V164   1.896       .  S
O160        C167   1.263       .  A
O161        V164   1.913       .  S
O161        C166   1.267       .  A
O162        V164   1.911       .  S
O162        C165   1.267       .  A
V163        V164   2.084       .  T
C165        C770   1.486       .  S
C166        C780   1.496       .  S
C167        C793   1.488       .  S
C168        C803   1.479       .  S
O169       V1265   1.905       .  S
O169       C3443   1.264       .  A
O170        V177   1.904       .  S
O170       C2356   1.266       .  A
O171        V177   1.908       .  S
O171        C181   1.267       .  A
O172       V1265   1.905   1_545  S
O172        C182   1.267       .  A
O173       V1266   1.897   1_545  S
O173       C2358   1.263       .  A
O174        V178   1.895       .  S
O174       C2357   1.263       .  A
O175       V1266   1.900       .  S
O175       C1268   1.264       .  A
O176        V178   1.901       .  S
O176        C179   1.265       .  A
V177       O1257   1.905       .  S
V177       O1260   1.905       .  S
V177       V2354   2.084       .  T
V178       O1261   1.897       .  S
V178       O1263   1.900       .  S
V178       V2353   2.084       .  T
C179       O3433   1.264       .  A
C179        C760   1.475       .  S
C180       O2346   1.266       .  A
C180       O1263   1.264       .  A
C180        C883   1.493       .  S
C181       O2350   1.263       .  A
C181        C740   1.480       .  S
C182       O2349   1.263       .  A
C182        C750   1.484       .  S
O183        V191   1.904       .  S
O183       C2369   1.267       .  A
O184        V191   1.908       .  S
O184       C2370   1.266       .  A
O185        V191   1.897       .  S
O185        C195   1.263       .  A
O186        V191   1.892       .  S
O186        C196   1.263       .  A
O187        V192   1.910       .  S
O187       C2372   1.267       .  A
O188        V192   1.907       .  S
O188       C2371   1.267       .  A
O189        V192   1.902       .  S
O189        C194   1.265       .  A
O190        V192   1.902       .  S
O190        C193   1.264       .  A
V191       V2368   2.085       .  T
V192       V2367   2.085       .  T
C193       O2359   1.267       .  A
C193        C733   1.485       .  S
C194       O2360   1.266       .  A
C194        C840   1.484       .  S
C195       O2364   1.267       .  A
C195        C753   1.483       .  S
C196       O2363   1.267       .  A
C196        C743   1.481       .  S
O197       V1293   1.910       .  S
O197       C1295   1.267       .  A
O198        V205   1.913       .  S
O198        C208   1.267       .  A
O199        V205   1.899       .  S
O199        C209   1.265       .  A
O200       V1293   1.897   1_545  S
O200        C210   1.264       .  A
O201       V1294   1.899   1_545  S
O201        C210   1.265       .  A
O202        V206   1.900       .  S
O202        C209   1.264       .  A
O203       V1294   1.899       .  S
O203       C1296   1.264       .  A
O204        V206   1.899       .  S
O204        C207   1.264       .  A
V205       O1285   1.910       .  S
V205       O1288   1.897       .  S
V205        V206   2.084       .  T
V206       O1289   1.899       .  S
V206       O1291   1.899       .  S
C207       O1285   1.267       .  A
C207        C820   1.486       .  S
C208       O1291   1.264       .  A
C208        C720   1.488       .  S
C209        C703   1.483       .  S
C210        C710   1.479       .  S
O211        V219   1.905       .  S
O211        C221   1.266       .  A
O212        V219   1.904       .  S
O212        C222   1.267       .  A
O213        V219   1.899       .  S
O213        C223   1.264       .  A
O214        V219   1.899       .  S
O214        C224   1.264       .  A
O215        V220   1.902       .  S
O215        C224   1.265       .  A
O216        V220   1.898       .  S
O216        C223   1.264       .  A
O217        V220   1.915       .  S
O217        C222   1.267       .  A
O218        V220   1.912       .  S
O218        C221   1.267       .  A
V219        V220   2.085       .  T
C221        C690   1.491       .  S
C222        C783   1.497       .  S
C223        C713   1.480       .  S
C224        C700   1.482       .  S
O225       V2409   1.914       .  S
O225       C3499   1.267       .  A
O226        V233   1.913       .  S
O226       C1324   1.268       .  A
O227        V233   1.898       .  S
O227        C237   1.263       .  A
O228       V2409   1.896   1_455  S
O228        C238   1.263       .  A
O229       V2410   1.901   1_455  S
O229       C1326   1.265       .  A
O230        V234   1.895       .  S
O230       C1325   1.265       .  A
O231       V2410   1.901       .  S
O231       C2412   1.264       .  A
O232        V234   1.899       .  S
O232        C235   1.266       .  A
V233       O2401   1.915       .  S
V233       O2404   1.896       .  S
V233       V1322   2.083       .  T
V234       O2405   1.901       .  S
V234       O2407   1.900       .  S
V234       V1321   2.083       .  T
C235       O3489   1.267       .  A
C235        C670   1.499       .  S
C236       O1314   1.268       .  A
C236       O2407   1.264       .  A
C236        C683   1.493       .  S
C237       O1318   1.265       .  A
C237        C650   1.478       .  S
C238       O1317   1.265       .  A
C238        C660   1.489       .  S
O239       V2423   1.903       .  S
O239       C2425   1.266       .  A
O240        V247   1.907       .  S
O240        C250   1.265       .  A
O241        V247   1.903       .  S
O241        C251   1.265       .  A
O242       V2423   1.902       .  S
O242        C252   1.265       .  A
O243       V2424   1.899       .  S
O243        C252   1.264       .  A
O244        V248   1.902       .  S
O244        C251   1.264       .  A
O245       V2424   1.900       .  S
O245       C2426   1.266       .  A
O246        V248   1.900       .  S
O246        C249   1.264       .  A
V247       O2415   1.904       .  S
V247       O2418   1.901   1_455  S
V247        V248   2.084       .  T
V248       O2419   1.900   1_455  S
V248       O2421   1.897       .  S
C249       O2415   1.266       .  A
C249        C633   1.488       .  S
C250       O2421   1.265       .  A
C250        C643   1.493       .  S
C251        C620   1.484       .  S
C252        C613   1.483       .  S
O253        V261   1.908       .  S
O253       C1351   1.267       .  A
O254        V261   1.909       .  S
O254       C1352   1.266       .  A
O255        V261   1.898       .  S
O255        C265   1.264       .  A
O256        V261   1.896       .  S
O256        C266   1.265       .  A
O257        V262   1.899       .  S
O257       C1354   1.263       .  A
O258        V262   1.897       .  S
O258       C1353   1.264       .  A
O259        V262   1.902       .  S
O259        C264   1.266       .  A
O260        V262   1.904       .  S
O260        C263   1.264       .  A
V261       V1350   2.083       .  T
V262       V1349   2.083       .  T
C263       O1341   1.267       .  A
C263        C600   1.496       .  S
C264       O1342   1.266       .  A
C264        C590   1.492       .  S
C265       O1346   1.264       .  A
C265        C653   1.479       .  S
C266       O1345   1.263       .  A
C266        C663   1.488       .  S
O267        V275   1.900       .  S
O267        C277   1.264       .  A
O268        V275   1.900       .  S
O268        C278   1.264       .  A
O269        V275   1.903       .  S
O269        C279   1.265       .  A
O270        V275   1.902       .  S
O270        C280   1.266       .  A
O271        V276   1.899       .  S
O271        C280   1.263       .  A
O272        V276   1.898       .  S
O272        C279   1.264       .  A
O273        V276   1.911       .  S
O273        C278   1.267       .  A
O274        V276   1.913       .  S
O274        C277   1.269       .  A
V275        V276   2.085       .  T
C277        C580   1.491       .  S
C278        C570   1.486       .  S
C279        C610   1.482       .  S
C280        C623   1.480       .  S
O281       V2465   1.904   1_565  S
O281       C3555   1.267       .  A
O282        V289   1.903       .  S
O282       C1380   1.264   1_545  A
O283        V289   1.899   1_455  S
O283        C293   1.266   1_545  A
O284       V2465   1.902       .  S
O284        C294   1.265   1_545  A
O285       V2466   1.895       .  S
O285       C1382   1.263       .  A
O286        V290   1.899   1_455  S
O286       C1381   1.263       .  A
O287       V2466   1.902       .  S
O287       C2468   1.265       .  A
O288        V290   1.909   1_455  S
O288        C291   1.266       .  A
V289       O2457   1.904   1_645  S
V289       O2460   1.900       .  S
V289       V1378   2.083   1_545  T
V290       O2461   1.895       .  S
V290       O2463   1.905       .  S
V290       V1377   2.083       .  T
C291       O3545   1.267       .  A
C291        C680   1.494       .  S
C292       O1370   1.264       .  A
C292       O2463   1.266       .  A
C292        C873   1.483       .  S
C293       O1374   1.263       .  A
C293        C560   1.488       .  S
C294       O1373   1.263       .  A
C294        C550   1.483       .  S
O295       V2479   1.909       .  S
O295       C2481   1.267       .  A
O296        V303   1.908       .  S
O296        C306   1.266       .  A
O297        V303   1.909       .  S
O297        C307   1.266       .  A
O298       V2479   1.898       .  S
O298        C308   1.264       .  A
O299       V2480   1.896       .  S
O299        C308   1.264       .  A
O300        V304   1.897       .  S
O300        C307   1.265       .  A
O301       V2480   1.904       .  S
O301       C2482   1.265       .  A
O302        V304   1.899       .  S
O302        C305   1.264       .  A
V303       O2471   1.909       .  S
V303       O2474   1.899   1_455  S
V303        V304   2.083       .  T
V304       O2475   1.896   1_455  S
V304       O2477   1.903       .  S
C305       O2471   1.267       .  A
C305        C640   1.494       .  S
C306       O2477   1.265       .  A
C306        C833   1.482   1_455  S
C307        C540   1.487       .  S
C308        C530   1.481       .  S
O309        V317   1.899       .  S
O309       C1407   1.264       .  A
O310        V317   1.903       .  S
O310       C1408   1.264       .  A
O311        V317   1.895       .  S
O311        C321   1.265       .  A
O312        V317   1.900       .  S
O312        C322   1.266       .  A
O313        V318   1.899       .  S
O313       C1410   1.264   1_545  A
O314        V318   1.901       .  S
O314       C1409   1.264   1_545  A
O315        V318   1.904       .  S
O315        C320   1.267   1_545  A
O316        V318   1.902       .  S
O316        C319   1.265   1_545  A
V317       V1406   2.083       .  T
V318       V1405   2.083   1_545  T
C319       O1397   1.264       .  A
C319        C810   1.478       .  S
C320       O1398   1.264       .  A
C320        C603   1.494       .  S
C321       O1402   1.264       .  A
C321        C553   1.483       .  S
C322       O1401   1.264       .  A
C322        C563   1.488       .  S
O323        V331   1.911       .  S
O323        C333   1.267       .  A
O324        V331   1.911       .  S
O324        C334   1.267       .  A
O325        V331   1.899       .  S
O325        C335   1.263       .  A
O326        V331   1.899       .  S
O326        C336   1.264       .  A
O327        V332   1.905       .  S
O327        C336   1.266       .  A
O328        V332   1.896       .  S
O328        C335   1.264       .  A
O329        V332   1.906       .  S
O329        C334   1.265       .  A
O330        V332   1.909       .  S
O330        C333   1.267       .  A
V331        V332   2.084       .  T
C333        C773   1.494       .  S
C334        C583   1.492       .  S
C335        C533   1.480       .  S
C336        C543   1.486       .  S
O337       V2521   1.900       .  S
O337       C3611   1.264       .  A
O338        V345   1.900       .  S
O338       C1436   1.264       .  A
O339        V345   1.898   1_455  S
O339        C349   1.264       .  A
O340       V2521   1.900       .  S
O340        C350   1.264       .  A
O341       V2522   1.902       .  S
O341       C1438   1.265       .  A
O342        V346   1.903   1_455  S
O342       C1437   1.266       .  A
O343       V2522   1.919       .  S
O343       C2524   1.270       .  A
O344        V346   1.915       .  S
O344        C347   1.268       .  A
V345       O2513   1.902       .  S
V345       O2516   1.903       .  S
V345       V1434   2.083       .  T
V346       O2517   1.902       .  S
V346       O2519   1.913       .  S
V346       V1433   2.083       .  T
C347       O3601   1.264       .  A
C347        C963   1.494       .  S
C348       O1426   1.264       .  A
C348       O2519   1.268       .  A
C348        C673   1.498       .  S
C349       O1430   1.266       .  A
C349        C523   1.486       .  S
C350       O1429   1.265       .  A
C350        C510   1.479       .  S
O351       V2535   1.918       .  S
O351       C2537   1.268       .  A
O352        V359   1.910       .  S
O352        C362   1.267       .  A
O353        V359   1.898       .  S
O353        C363   1.263       .  A
O354       V2535   1.900       .  S
O354        C364   1.263       .  A
O355       V2536   1.903       .  S
O355        C364   1.266       .  A
O356        V360   1.904       .  S
O356        C363   1.266       .  A
O357       V2536   1.894       .  S
O357       C2538   1.264       .  A
O358        V360   1.897       .  S
O358        C361   1.265       .  A
V359       O2527   1.914       .  S
V359       O2530   1.896   1_455  S
V359        V360   2.083       .  T
V360       O2531   1.904   1_455  S
V360       O2533   1.897       .  S
C361       O2527   1.267       .  A
C361        C933   1.496       .  S
C362       O2533   1.264       .  A
C362        C630   1.489   1_455  S
C363        C503   1.481       .  S
C364        C493   1.486       .  S
O365        V373   1.917       .  S
O365       C1463   1.269       .  A
O366        V373   1.917       .  S
O366       C1464   1.268       .  A
O367        V373   1.902       .  S
O367        C377   1.265       .  A
O368        V373   1.902       .  S
O368        C378   1.264       .  A
O369        V374   1.901       .  S
O369       C1466   1.266       .  A
O370        V374   1.903       .  S
O370       C1465   1.265       .  A
O371        V374   1.903       .  S
O371        C376   1.267       .  A
O372        V374   1.901       .  S
O372        C375   1.264       .  A
V373       V1462   2.083       .  T
V374       V1461   2.083       .  T
C375       O1453   1.269       .  A
C375        C593   1.495       .  S
C376       O1454   1.268       .  A
C376        C903   1.500       .  S
C377       O1458   1.265       .  A
C377        C513   1.480       .  S
C378       O1457   1.265       .  A
C378        C520   1.485       .  S
O379        V387   1.903       .  S
O379        C389   1.266       .  A
O380        V387   1.902       .  S
O380        C390   1.265       .  A
O381        V387   1.896       .  S
O381        C391   1.263       .  A
O382        V387   1.895       .  S
O382        C392   1.263       .  A
O383        V388   1.904       .  S
O383        C392   1.266       .  A
O384        V388   1.904       .  S
O384        C391   1.267       .  A
O385        V388   1.907       .  S
O385        C390   1.265       .  A
O386        V388   1.906       .  S
O386        C389   1.265       .  A
V387        V388   2.085       .  T
C389        C573   1.486       .  S
C390        C893   1.484       .  S
C391        C490   1.485       .  S
C392        C500   1.479       .  S
O393       V1489   1.910       .  S
O393       C3667   1.267       .  A
O394        V401   1.909       .  S
O394       C2580   1.266       .  A
O395        V401   1.904       .  S
O395        C405   1.266       .  A
O396       V1489   1.902       .  S
O396        C406   1.264       .  A
O397       V1490   1.901       .  S
O397       C2582   1.265       .  A
O398        V402   1.900       .  S
O398       C2581   1.264       .  A
O399       V1490   1.895       .  S
O399       C1492   1.263       .  A
O400        V402   1.900       .  S
O400        C403   1.264       .  A
V401       O1481   1.911       .  S
V401       O1484   1.902       .  S
V401       V2578   2.086       .  T
V402       O1485   1.901       .  S
V402       O1487   1.895       .  S
V402       V2577   2.086       .  T
C403       O3657   1.267       .  A
C403       C1080   1.489       .  S
C404       O2570   1.266       .  A
C404       O1487   1.263       .  A
C404        C763   1.473       .  S
C405       O2574   1.264       .  A
C405        C470   1.483       .  S
C406       O2573   1.265       .  A
C406        C480   1.480       .  S
O407        V415   1.916       .  S
O407       C2593   1.268       .  A
O408        V415   1.920       .  S
O408       C2594   1.270       .  A
O409        V415   1.897       .  S
O409        C419   1.262       .  A
O410        V415   1.895       .  S
O410        C420   1.263       .  A
O411        V416   1.910       .  S
O411       C2596   1.267       .  A
O412        V416   1.906       .  S
O412       C2595   1.267       .  A
O413        V416   1.896       .  S
O413        C418   1.263       .  A
O414        V416   1.897       .  S
O414        C417   1.264       .  A
V415       V2592   2.085       .  T
V416       V2591   2.085       .  T
C417       O2583   1.268       .  A
C417       C1040   1.489       .  S
C418       O2584   1.270       .  A
C418        C730   1.493       .  S
C419       O2588   1.267       .  A
C419        C483   1.476       .  S
C420       O2587   1.267       .  A
C420        C473   1.483       .  S
O421       V1517   1.913       .  S
O421       C1519   1.267       .  A
O422        V429   1.919       .  S
O422        C432   1.268       .  A
O423        V429   1.906       .  S
O423        C433   1.266       .  A
O424       V1517   1.910   1_545  S
O424        C434   1.267       .  A
O425       V1518   1.893   1_545  S
O425        C434   1.262       .  A
O426        V430   1.896       .  S
O426        C433   1.262       .  A
O427       V1518   1.898       .  S
O427       C1520   1.265       .  A
O428        V430   1.903       .  S
O428        C431   1.266       .  A
V429       O1509   1.913       .  S
V429       O1512   1.910       .  S
V429        V430   2.086       .  T
V430       O1513   1.893       .  S
V430       O1515   1.898       .  S
C431       O1509   1.267       .  A
C431        C723   1.488       .  S
C432       O1515   1.265       .  A
C432       C1023   1.493       .  S
C433        C450   1.479       .  S
C434        C460   1.479       .  S
O435        V443   1.919       .  S
O435        C445   1.269       .  A
O436        V443   1.923       .  S
O436        C446   1.270       .  A
O437        V443   1.896       .  S
O437        C447   1.262       .  A
O438        V443   1.895       .  S
O438        C448   1.262       .  A
O439        V444   1.912       .  S
O439        C448   1.268       .  A
O440        V444   1.910       .  S
O440        C447   1.267       .  A
O441        V444   1.894       .  S
O441        C446   1.263       .  A
O442        V444   1.897       .  S
O442        C445   1.263       .  A
V443        V444   2.085       .  T
C445        C693   1.491       .  S
C446        C983   1.490       .  S
C447        C463   1.479       .  S
C448        C453   1.483       .  S
C449        C450   1.399       .  A
C449        C454   1.397       .  A
C449        H456   1.085       .  S
C450        C451   1.413       .  A
C451        C452   1.402       .  A
C451       Br458   1.919       .  S
C452        C453   1.403       .  A
C452        H457   1.084       .  S
C453        C454   1.413       .  A
C454       Br455   1.909       .  S
C459        C460   1.404       .  A
C459        C464   1.402       .  A
C459        H466   1.083       .  S
C460        C461   1.412       .  A
C461        C462   1.400       .  A
C461       Br468   1.921       .  S
C462        C463   1.402       .  A
C462        H467   1.083       .  S
C463        C464   1.412       .  A
C464       Br465   1.921       .  S
C469        C474   1.399       .  A
C469       C2646   1.403       .  A
C469        H476   1.083       .  S
C470        C471   1.414       .  A
C470       C2645   1.403       .  A
C471        C472   1.403       .  A
C471       Br478   1.921       .  S
C472        C473   1.404       .  A
C472        H477   1.083       .  S
C473       C2650   1.413       .  A
C474       C2649   1.413       .  A
C474       Br475   1.920       .  S
C479        C484   1.399       .  A
C479       C2656   1.405       .  A
C479        H486   1.083       .  S
C480        C481   1.412       .  A
C480       C2655   1.405       .  A
C481        C482   1.401       .  A
C481       Br488   1.921       .  S
C482        C483   1.404       .  A
C482        H487   1.083       .  S
C483       C2660   1.408       .  A
C484       C2659   1.408       .  A
C484       Br485   1.920       .  S
C489        C490   1.404       .  A
C489        C494   1.400       .  A
C489        H496   1.083       .  S
C490        C491   1.415       .  A
C491        C492   1.400       .  A
C491       Br498   1.922       .  S
C492        C493   1.404       .  A
C492        H497   1.083       .  S
C493        C494   1.414       .  A
C494       Br495   1.919       .  S
C499        C500   1.402       .  A
C499        C504   1.399       .  A
C499        H506   1.085       .  S
C500        C501   1.413       .  A
C501        C502   1.399       .  A
C501       Br508   1.921       .  S
C502        C503   1.403       .  A
C502        H507   1.084       .  S
C503        C504   1.414       .  A
C504       Br505   1.917       .  S
C509        C514   1.400       .  A
C509       C1598   1.403       .  A
C509        H516   1.083       .  S
C510        C511   1.412       .  A
C510       C1597   1.403       .  A
C511        C512   1.401       .  A
C511       Br518   1.921   1_565  S
C512       C1601   1.403       .  A
C512        H517   1.083       .  S
C513        C514   1.411       .  A
C513       C1600   1.403       .  A
C514       Br515   1.917       .  S
C519        C524   1.399       .  A
C519       C1608   1.404       .  A
C519        H526   1.084       .  S
C520        C521   1.414       .  A
C520       C1607   1.404       .  A
C521        C522   1.401       .  A
C521       Br528   1.921       .  S
C522       C1611   1.406       .  A
C522        H527   1.084       .  S
C523        C524   1.415       .  A
C523       C1610   1.406       .  A
C524       Br525   1.922   1_565  S
C529        C530   1.406       .  A
C529        C534   1.398       .  A
C529        H536   1.083       .  S
C530        C531   1.412       .  A
C531        C532   1.398       .  A
C531       Br538   1.922       .  S
C532        C533   1.405       .  A
C532        H537   1.083       .  S
C533        C534   1.413       .  A
C534       Br535   1.922       .  S
C539        C540   1.405       .  A
C539        C544   1.399       .  A
C539        H546   1.084       .  S
C540        C541   1.413       .  A
C541        C542   1.403       .  A
C541       Br548   1.919       .  S
C542        C543   1.406       .  A
C542        H547   1.084       .  S
C543        C544   1.414       .  A
C544       Br545   1.922       .  S
C549        C550   1.406   1_545  A
C549        C554   1.401       .  A
C549        H556   1.084       .  S
C550       C1639   1.414       .  A
C551        C552   1.396       .  A
C551       C1638   1.414       .  A
C551       Br558   1.923       .  S
C552        C553   1.404       .  A
C552        H557   1.084       .  S
C553       C1642   1.414       .  A
C554       C1641   1.414   1_545  A
C554       Br555   1.921       .  S
C559        C560   1.406   1_545  A
C559        C564   1.398       .  A
C559        H566   1.084       .  S
C560       C1649   1.415       .  A
C561        C562   1.400       .  A
C561       C1648   1.415       .  A
C561       Br568   1.921       .  S
C562        C563   1.406       .  A
C562        H567   1.084       .  S
C563       C1652   1.415       .  A
C564       C1651   1.415   1_545  A
C564       Br565   1.922       .  S
C569        C570   1.406       .  A
C569        C574   1.404   1_554  A
C569        H576   1.082       .  S
C570        C571   1.412       .  A
C571        C572   1.400   1_554  A
C571       Br578   1.921       .  S
C572        C573   1.404       .  A
C572        H577   1.083       .  S
C573        C574   1.414       .  A
C574       Br575   1.921       .  S
C579        C580   1.405       .  A
C579        C584   1.404       .  A
C579        H586   1.084       .  S
C580        C581   1.415       .  A
C581        C582   1.404       .  A
C581       Br588   1.922       .  S
C582        C583   1.406       .  A
C582        H587   1.084       .  S
C583        C584   1.416       .  A
C584       Br585   1.921       .  S
C589        C590   1.405       .  A
C589        C594   1.401   1_554  A
C589        H596   1.078       .  S
C590       C1679   1.414       .  A
C591        C592   1.407   1_554  A
C591       C1678   1.414       .  A
C591       Br598   1.920       .  S
C592       C1681   1.408       .  A
C592        H597   1.077       .  S
C593        C594   1.416       .  A
C593       C1680   1.408       .  A
C594       Br595   1.922   1_565  S
C599        C600   1.407       .  A
C599        C604   1.403       .  A
C599        H606   1.083       .  S
C600       C1689   1.417       .  A
C601        C602   1.402       .  A
C601       C1688   1.417       .  A
C601       Br608   1.922       .  S
C602       C1691   1.406       .  A
C602        H607   1.083       .  S
C603        C604   1.416       .  A
C603       C1690   1.406   1_565  A
C604       Br605   1.922       .  S
C609        C610   1.404       .  A
C609        C614   1.398       .  A
C609        H616   1.083       .  S
C610        C611   1.412       .  A
C611        C612   1.401       .  A
C611       Br618   1.921       .  S
C612        C613   1.406       .  A
C612        H617   1.083       .  S
C613        C614   1.413       .  A
C614       Br615   1.919       .  S
C619        C620   1.405       .  A
C619        C624   1.401       .  A
C619        H626   1.081       .  S
C620        C621   1.413       .  A
C621        C622   1.399       .  A
C621       Br628   1.920       .  S
C622        C623   1.403       .  A
C622        H627   1.084       .  S
C623        C624   1.412       .  A
C624       Br625   1.922       .  S
C629        C630   1.407       .  A
C629        C634   1.400   1_556  A
C629        H636   1.083       .  S
C630       C2807   1.414   1_655  A
C631        C632   1.402   1_556  A
C631       C2806   1.413       .  A
C631       Br638   1.916       .  S
C632       C2809   1.405       .  A
C632        H637   1.083       .  S
C633        C634   1.414   1_455  A
C633       C2808   1.405       .  A
C634       Br635   1.922       .  S
C639        C644   1.405       .  A
C639       C2816   1.409       .  A
C639        H646   1.082       .  S
C640        C641   1.416       .  A
C640       C2815   1.409       .  A
C641        C642   1.398       .  A
C641       Br648   1.923       .  S
C642        C643   1.405       .  A
C642        H647   1.082       .  S
C643       C2820   1.416       .  A
C644       C2819   1.416       .  A
C644       Br645   1.921       .  S
C649        C654   1.396       .  A
C649       C1738   1.404       .  A
C649        H656   1.077       .  S
C650        C651   1.412       .  A
C650       C1737   1.404       .  A
C651        C652   1.401       .  A
C651       Br658   1.922       .  S
C652        C653   1.407       .  A
C652        H657   1.077       .  S
C653       C1742   1.411       .  A
C654       C1741   1.411       .  A
C654       Br655   1.922   1_565  S
C659        C664   1.401       .  A
C659       C1748   1.407       .  A
C659        H666   1.083   1_565  S
C660        C661   1.415       .  A
C660       C1747   1.407       .  A
C661        C662   1.396       .  A
C661       Br668   1.919       .  S
C662        C663   1.405       .  A
C662        H667   1.083       .  S
C663       C1752   1.416       .  A
C664       C1751   1.416       .  A
C664       Br665   1.923   1_565  S
C669        C670   1.405       .  A
C669        C674   1.400   1_554  A
C669        H676   1.083   1_565  S
C670       C3935   1.416       .  A
C671        C672   1.407   1_554  A
C671       C3934   1.416       .  A
C671       Br678   1.919       .  S
C672        C673   1.409       .  A
C672        H677   1.083       .  S
C673       C3938   1.417       .  A
C674       C3937   1.419       .  A
C674       Br675   1.924   1_565  S
C679        C684   1.401       .  A
C679       C3944   1.406       .  A
C679        H686   1.083   1_565  S
C680        C681   1.416       .  A
C680       C3943   1.406   1_455  A
C681        C682   1.406       .  A
C681       Br688   1.921       .  S
C682       C3947   1.407   1_455  A
C682        H687   1.082       .  S
C683        C684   1.416       .  A
C683       C3946   1.406       .  A
C684       Br685   1.922   1_565  S
C689        C690   1.404       .  A
C689        C694   1.402       .  A
C689        H696   1.083       .  S
C690        C691   1.414       .  A
C691        C692   1.407       .  A
C691       Br698   1.920       .  S
C692        C693   1.406       .  A
C692        H697   1.083       .  S
C693        C694   1.415       .  A
C694       Br695   1.922       .  S
C699        C700   1.405       .  A
C699        C704   1.400       .  A
C699        H706   1.084       .  S
C700        C701   1.411       .  A
C701        C702   1.399       .  A
C701       Br708   1.917       .  S
C702        C703   1.405       .  A
C702        H707   1.084       .  S
C703        C704   1.414       .  A
C704       Br705   1.921       .  S
C709        C710   1.404       .  A
C709        C714   1.399       .  A
C709        H716   1.083       .  S
C710        C711   1.411       .  A
C711        C712   1.398       .  A
C711       Br718   1.921       .  S
C712        C713   1.405       .  A
C712        H717   1.084       .  S
C713        C714   1.412       .  A
C714       Br715   1.921       .  S
C719        C720   1.407       .  A
C719        C724   1.407       .  A
C719        H726   1.083       .  S
C720       C1809   1.413       .  A
C721        C722   1.400       .  A
C721       C1808   1.413   1_545  A
C721       Br728   1.922       .  S
C722       C1811   1.404   1_545  A
C722        H727   1.083       .  S
C723        C724   1.413       .  A
C723       C1810   1.404       .  A
C724       Br725   1.918       .  S
C729        C730   1.409       .  A
C729        C734   1.403       .  A
C729        H736   1.082       .  S
C730       C2907   1.412       .  A
C731        C732   1.400       .  A
C731       C2906   1.412       .  A
C731       Br738   1.907       .  S
C732       C2909   1.403       .  A
C732        H737   1.083       .  S
C733        C734   1.413       .  A
C733       C2908   1.403       .  A
C734       Br735   1.921   1_655  S
C739        C744   1.401       .  A
C739       C2916   1.406       .  A
C739        H746   1.084       .  S
C740        C741   1.409       .  A
C740       C2915   1.406       .  A
C741        C742   1.399       .  A
C741       Br748   1.920       .  S
C742        C743   1.406       .  A
C742        H747   1.084       .  S
C743       C2920   1.410       .  A
C744       C2919   1.410       .  A
C744       Br745   1.920   1_655  S
C749        C750   1.404       .  A
C749        C754   1.399       .  A
C749        H756   1.084       .  S
C750       C2927   1.414       .  A
C751        C752   1.401       .  A
C751       C2926   1.414       .  A
C751       Br758   1.922       .  S
C752       C2929   1.404       .  A
C752        H757   1.084       .  S
C753        C754   1.413       .  A
C753       C2928   1.404       .  A
C754       Br755   1.920       .  S
C759        C764   1.404       .  A
C759       C2936   1.405       .  A
C759        H766   1.084       .  S
C760       C2935   1.405       .  A
C760       C1849   1.408       .  A
C761        C762   1.398       .  A
C761       C1848   1.408       .  A
C761       Br768   1.920       .  S
C762       C1851   1.403       .  A
C762        H767   1.084       .  S
C763       C1850   1.402       .  A
C763       C2940   1.409       .  A
C764       C2939   1.409       .  A
C764       Br765   1.919       .  S
C769        C770   1.404       .  A
C769        C774   1.405       .  A
C769        H776   1.083       .  S
C770        C771   1.411       .  A
C771        C772   1.405       .  A
C771       Br778   1.921       .  S
C772        C773   1.408       .  A
C772        H777   1.083       .  S
C773        C774   1.415       .  A
C774       Br775   1.919       .  S
C779        C780   1.408       .  A
C779        C784   1.408       .  A
C779        H786   1.084       .  S
C780        C781   1.415       .  A
C781        C782   1.402       .  A
C781       Br788   1.922       .  S
C782        C783   1.406       .  A
C782        H787   1.084       .  S
C783        C784   1.416       .  A
C784       Br785   1.919       .  S
C789        C790   1.407       .  A
C789        C794   1.396       .  A
C789        H796   1.083       .  S
C790        C791   1.415       .  A
C791        C792   1.401       .  A
C791       Br798   1.921       .  S
C792        C793   1.408       .  A
C792        H797   1.083       .  S
C793        C794   1.414       .  A
C794       Br795   1.922       .  S
C799        C800   1.404       .  A
C799        C804   1.399       .  A
C799        H806   1.084       .  S
C800        C801   1.413       .  A
C801        C802   1.400       .  A
C801       Br808   1.922       .  S
C802        C803   1.403       .  A
C802        H807   1.084       .  S
C803        C804   1.412       .  A
C804       Br805   1.921       .  S
C809        C814   1.399       .  A
C809       C1898   1.404       .  A
C809        H816   1.084       .  S
C810        C811   1.411   1_565  A
C810       C1897   1.404       .  A
C811        C812   1.401       .  A
C811       Br818   1.920       .  S
C812        C813   1.404   1_545  A
C812        H817   1.084       .  S
C813       C1902   1.410       .  A
C814       C1901   1.410       .  A
C814       Br815   1.921       .  S
C819        C824   1.400       .  A
C819       C1908   1.405   1_565  A
C819        H826   1.083       .  S
C820        C821   1.413       .  A
C820       C1907   1.405       .  A
C821        C822   1.404       .  A
C821       Br828   1.921       .  S
C822       C1911   1.405       .  A
C822        H827   1.082       .  S
C823        C824   1.413   1_545  A
C823       C1910   1.405       .  A
C824       Br825   1.922       .  S
C829        C830   1.407   1_455  A
C829        C834   1.402       .  A
C829        H836   1.084       .  S
C830       C3007   1.415       .  A
C831        C832   1.405       .  A
C831       C3006   1.415       .  A
C831       Br838   1.921       .  S
C832       C3009   1.405       .  A
C832        H837   1.084       .  S
C833        C834   1.408   1_655  A
C833       C3008   1.405       .  A
C834       Br835   1.919       .  S
C839        C840   1.404       .  A
C839        C844   1.401       .  A
C839        H846   1.083       .  S
C840       C3017   1.412       .  A
C841        C842   1.402       .  A
C841       C3016   1.412       .  A
C841       Br848   1.916       .  S
C842       C3019   1.403       .  A
C842        H847   1.083       .  S
C843        C844   1.412       .  A
C843       C3018   1.404       .  A
C844       Br845   1.921   1_655  S
C849        C850   1.405       .  A
C849        C854   1.398       .  A
C849        H856   1.081       .  S
C850       C3027   1.417       .  A
C851        C852   1.398       .  A
C851       C3026   1.417       .  A
C851       Br858   1.923   1_655  S
C852       C3029   1.403       .  A
C852        H857   1.082   1_655  S
C853        C854   1.416       .  A
C853       C3028   1.404       .  A
C854       Br855   1.924       .  S
C859        C860   1.408       .  A
C859        C864   1.401       .  A
C859        H866   1.083       .  S
C860       C3037   1.412       .  A
C861        C862   1.397       .  A
C861       C3036   1.412       .  A
C861       Br868   1.922   1_655  S
C862       C3039   1.407       .  A
C862        H867   1.084   1_655  S
C863        C864   1.413       .  A
C863       C3038   1.407       .  A
C864       Br865   1.921       .  S
C869        C874   1.403       .  A
C869       C1958   1.404   1_445  A
C869        H876   1.083       .  S
C870       C1957   1.404   1_655  A
C870       C3047   1.409       .  A
C871        C872   1.399       .  A
C871       C3046   1.409       .  A
C871       Br878   1.921       .  S
C872       C3049   1.405       .  A
C872        H877   1.083       .  S
C873       C3048   1.405       .  A
C873       C1962   1.413   1_655  A
C874       C1961   1.413   1_445  A
C874       Br875   1.921       .  S
C879        C884   1.399       .  A
C879       C4144   1.406       .  A
C879        H886   1.083       .  S
C880        C881   1.415       .  A
C880       C4143   1.406       .  A
C881        C882   1.402       .  A
C881       Br888   1.921       .  S
C882        C883   1.408       .  A
C882        H887   1.083       .  S
C883       C4148   1.416       .  A
C884       C4147   1.417   1_545  A
C884       Br885   1.923       .  S
C889        C890   1.405       .  A
C889        C894   1.404       .  A
C889        H896   1.083       .  S
C890        C891   1.413       .  A
C891        C892   1.400       .  A
C891       Br898   1.921       .  S
C892        C893   1.403       .  A
C892        H897   1.083       .  S
C893        C894   1.413       .  A
C894       Br895   1.917       .  S
C899        C904   1.411       .  A
C899       C1988   1.410       .  A
C899        H906   1.083       .  S
C900        C901   1.417       .  A
C900       C1987   1.410       .  A
C901        C902   1.401       .  A
C901       Br908   1.923   1_565  S
C902        C903   1.405       .  A
C902        H907   1.084       .  S
C903       C1992   1.417       .  A
C904       C1991   1.417       .  A
C904       Br905   1.920       .  S
C909        C910   1.405       .  A
C909        C914   1.401       .  A
C909        H916   1.084       .  S
C910        C911   1.412       .  A
C911        C912   1.396       .  A
C911       Br918   1.920       .  S
C912        C913   1.402       .  A
C912        H917   1.084       .  S
C913        C914   1.412       .  A
C914       Br915   1.919       .  S
C919        C920   1.407       .  A
C919        C924   1.401       .  A
C919        H926   1.084       .  S
C920        C921   1.414       .  A
C921        C922   1.398       .  A
C921       Br928   1.923       .  S
C922        C923   1.406       .  A
C922        H927   1.084       .  S
C923        C924   1.417       .  A
C924       Br925   1.923       .  S
C929        C930   1.409       .  A
C929        C934   1.406       .  A
C929        H936   1.083       .  S
C930       C3107   1.416   1_455  A
C931        C932   1.399       .  A
C931       C3106   1.415       .  A
C931       Br938   1.923       .  S
C932       C3109   1.407       .  A
C932        H937   1.083       .  S
C933        C934   1.416       .  A
C933       C3108   1.407   1_455  A
C934       Br935   1.920       .  S
C939        C944   1.401       .  A
C939       C2028   1.404       .  A
C939        H946   1.083   1_565  S
C940        C941   1.415       .  A
C940       C2027   1.404       .  A
C941        C942   1.400       .  A
C941       Br948   1.920       .  S
C942       C2031   1.404       .  A
C942        H947   1.083       .  S
C943        C944   1.415       .  A
C943       C2030   1.404       .  A
C944       Br945   1.921   1_565  S
C949        C954   1.399       .  A
C949       C2038   1.402       .  A
C949        H956   1.085       .  S
C950        C951   1.412       .  A
C950       C2037   1.402       .  A
C951        C952   1.402       .  A
C951       Br958   1.920       .  S
C952       C2041   1.403       .  A
C952        H957   1.084       .  S
C953        C954   1.412       .  A
C953       C2040   1.403       .  A
C954       Br955   1.921   1_565  S
C959        C964   1.402       .  A
C959       C2048   1.405   1_455  A
C959        H966   1.083   1_565  S
C960       C2047   1.405   1_655  A
C960       C3137   1.415       .  A
C961        C962   1.406       .  A
C961       C3136   1.415       .  A
C961       Br968   1.920       .  S
C962       C3139   1.405       .  A
C962        H967   1.083       .  S
C963       C3138   1.407       .  A
C963       C2052   1.416   1_655  A
C964       C2051   1.416   1_455  A
C964       Br965   1.922   1_565  S
C969        C970   1.404       .  A
C969        C974   1.402       .  A
C969        H976   1.084       .  S
C970        C971   1.415       .  A
C971        C972   1.404       .  A
C971       Br978   1.920       .  S
C972        C973   1.404       .  A
C972        H977   1.084       .  S
C973        C974   1.413       .  A
C974       Br975   1.921       .  S
C979        C980   1.408       .  A
C979        C984   1.408       .  A
C979        H986   1.083       .  S
C980        C981   1.411       .  A
C981        C982   1.401       .  A
C981       Br988   1.921       .  S
C982        C983   1.406       .  A
C982        H987   1.084       .  S
C983        C984   1.412       .  A
C984       Br985   1.917       .  S
C989        C990   1.406       .  A
C989        C994   1.397       .  A
C989        H996   1.084       .  S
C990        C991   1.414       .  A
C991        C992   1.394       .  A
C991       Br998   1.923       .  S
C992        C993   1.405       .  A
C992        H997   1.084       .  S
C993        C994   1.415       .  A
C994       Br995   1.924       .  S
C999       C1000   1.406       .  A
C999       C1004   1.399       .  A
C999       H1006   1.084       .  S
C1000      C1001   1.414       .  A
C1001      C1002   1.396       .  A
C1001     Br1008   1.923       .  S
C1002      C1003   1.406       .  A
C1002      H1007   1.084       .  S
C1003      C1004   1.415       .  A
C1004     Br1005   1.923       .  S
C1009      C1014   1.403       .  A
C1009      C2098   1.404       .  A
C1009      H1016   1.083       .  S
C1010      C1011   1.416       .  A
C1010      C2097   1.404       .  A
C1011      C1012   1.410   1_565  A
C1011     Br1018   1.920   1_565  S
C1012      C1013   1.406   1_545  A
C1012      H1017   1.083       .  S
C1013      C1128   1.491       .  S
C1013      C2102   1.411       .  A
C1014      C2101   1.411       .  A
C1014     Br1015   1.920       .  S
C1019      C1020   1.410       .  A
C1019      C1024   1.411       .  A
C1019      H1026   1.083       .  S
C1020      C2109   1.412       .  A
C1021      C1022   1.399       .  A
C1021      C2108   1.412   1_545  A
C1021     Br1028   1.921       .  S
C1022      C2111   1.405   1_545  A
C1022      H1027   1.083       .  S
C1023      C1024   1.415       .  A
C1023      C2110   1.405       .  A
C1024     Br1025   1.920       .  S
C1029      C1034   1.403       .  A
C1029      C3206   1.406       .  A
C1029      H1036   1.084       .  S
C1030      C1031   1.413   1_655  A
C1030      C3205   1.406       .  A
C1031      C1032   1.405       .  A
C1031     Br1038   1.919       .  S
C1032      C1033   1.405   1_455  A
C1032      H1037   1.084       .  S
C1033      C3210   1.411       .  A
C1034      C3209   1.411       .  A
C1034     Br1035   1.920       .  S
C1039      C1040   1.404       .  A
C1039      C1044   1.399       .  A
C1039      H1046   1.084       .  S
C1040      C3217   1.413       .  A
C1041      C1042   1.408       .  A
C1041      C3216   1.413       .  A
C1041     Br1048   1.919       .  S
C1042      C3219   1.408       .  A
C1042      H1047   1.083       .  S
C1043      C1044   1.415       .  A
C1043      C3218   1.408       .  A
C1044     Br1045   1.923   1_655  S
C1049      C1050   1.404       .  A
C1049      C1054   1.396       .  A
C1049      H1056   1.084   1_655  S
C1050      C3227   1.413       .  A
C1051      C1052   1.399       .  A
C1051      C3226   1.413       .  A
C1051     Br1058   1.923       .  S
C1052      C1053   1.405       .  A
C1052      H1057   1.084       .  S
C1053      C3230   1.412       .  A
C1054      C3229   1.412       .  A
C1054     Br1055   1.922   1_655  S
C1059      C1064   1.400       .  A
C1059      C3236   1.406       .  A
C1059      H1066   1.083       .  S
C1060      C1061   1.414       .  A
C1060      C3235   1.406       .  A
C1061      C1062   1.400       .  A
C1061     Br1068   1.921   1_655  S
C1062      C3239   1.406       .  A
C1062      H1067   1.084   1_655  S
C1063      C1064   1.413       .  A
C1063      C3238   1.406       .  A
C1064     Br1065   1.922       .  S
C1069      C1074   1.405       .  A
C1069      C2158   1.407       .  A
C1069      H1076   1.083       .  S
C1070      C2157   1.407       .  A
C1070      C3247   1.414   1_565  A
C1071      C1072   1.403   1_545  A
C1071      C3246   1.412   1_445  A
C1071     Br1078   1.919       .  S
C1072      C2161   1.405   1_455  A
C1072      H1077   1.083   1_565  S
C1073      C2160   1.405   1_655  A
C1073      C3250   1.412       .  A
C1074      C3249   1.412       .  A
C1074     Br1075   1.920       .  S
C1079      C1084   1.406       .  A
C1079      C4344   1.407       .  A
C1079      H1086   1.083       .  S
C1080      C1081   1.413       .  A
C1080      C4343   1.407       .  A
C1081      C1082   1.399       .  A
C1081     Br1088   1.922   1_655  S
C1082      C4347   1.406       .  A
C1082      H1087   1.083       .  S
C1083      C1084   1.416       .  A
C1083      C4346   1.407   1_545  A
C1084     Br1085   1.921       .  S
O1089      C2187   1.265       .  A
O1090      V1097   1.901       .  S
O1090      C3276   1.266       .  A
O1091      V1097   1.901       .  S
O1091      C1101   1.264       .  A
O1092      C1102   1.265       .  A
O1093      C3278   1.262       .  A
O1094      V1098   1.901       .  S
O1094      C3277   1.266       .  A
O1096      V1098   1.913       .  S
O1096      C1099   1.268       .  A
V1097      V3274   2.084       .  T
V1098      V3273   2.083       .  T
C1099      O2177   1.265       .  A
C1099      C2158   1.491       .  S
C1100      O3266   1.266       .  A
C1100      C2171   1.495       .  S
C1101      O3270   1.266       .  A
C1101      C2148   1.487       .  S
C1102      O3269   1.263       .  A
C1102      C2138   1.478       .  S
O1103      V1111   1.913       .  S
O1103      C3289   1.268       .  A
O1104      V1111   1.915       .  S
O1104      C3290   1.268       .  A
O1105      V1111   1.902       .  S
O1105      C1115   1.265       .  A
O1106      V1111   1.897       .  S
O1106      C1116   1.264       .  A
O1107      V1112   1.898       .  S
O1107      C3292   1.264       .  A
O1108      V1112   1.901       .  S
O1108      C3291   1.266       .  A
O1109      V1112   1.901       .  S
O1109      C1114   1.265       .  A
O1110      V1112   1.902       .  S
O1110      C1113   1.264       .  A
V1111      V3288   2.084       .  T
V1112      V3287   2.084       .  T
C1113      O3279   1.268       .  A
C1113      C2121   1.485       .  S
C1114      O3280   1.268       .  A
C1114      C2131   1.491       .  S
C1115      O3284   1.265       .  A
C1115      C2151   1.486       .  S
C1116      O3283   1.264       .  A
C1116      C2141   1.478       .  S
O1118      V1125   1.910       .  S
O1118      C1128   1.267       .  A
O1119      V1125   1.893       .  S
O1119      C1129   1.264       .  A
O1120      C1130   1.263       .  A
O1121      C1130   1.264       .  A
O1122      V1126   1.894       .  S
O1122      C1129   1.262       .  A
O1124      V1126   1.907       .  S
O1124      C1127   1.267       .  A
V1125      V1126   2.084       .  T
C1127      C2108   1.494       .  S
C1129      C2078   1.482       .  S
C1130      C2088   1.483       .  S
O1131      V1139   1.906       .  S
O1131      C1141   1.265       .  A
O1132      V1139   1.905       .  S
O1132      C1142   1.266       .  A
O1133      V1139   1.898       .  S
O1133      C1143   1.263       .  A
O1134      V1139   1.893       .  S
O1134      C1144   1.265       .  A
O1135      V1140   1.894       .  S
O1135      C1144   1.262       .  A
O1136      V1140   1.895       .  S
O1136      C1143   1.265       .  A
O1137      V1140   1.912       .  S
O1137      C1142   1.266       .  A
O1138      V1140   1.908       .  S
O1138      C1141   1.267       .  A
V1139      V1140   2.083       .  T
C1141      C2058   1.487       .  S
C1142      C2068   1.489       .  S
C1143      C2091   1.485       .  S
C1144      C2081   1.482       .  S
O1145      V3329   1.907       .  S
O1145      C2243   1.266       .  A
O1146      V1153   1.903       .  S
O1147      V1153   1.896   1_455  S
O1147      C1157   1.263       .  A
O1148      V3329   1.899       .  S
O1148      C1158   1.264       .  A
O1149      V3330   1.904       .  S
O1150      V1154   1.908   1_455  S
O1151      V3330   1.911       .  S
O1151      C3332   1.267       .  A
O1152      V1154   1.910       .  S
O1152      C1155   1.266       .  A
V1153      O3321   1.906       .  S
V1153      O3324   1.899       .  S
V1154      O3325   1.903       .  S
V1154      O3327   1.911       .  S
C1155      O2233   1.266       .  A
C1155      C2161   1.486       .  S
C1156      O3327   1.267       .  A
C1156      C2048   1.492       .  S
C1157      C2041   1.478       .  S
C1158      C2031   1.486       .  S
O1159      V3343   1.908       .  S
O1159      C3345   1.267       .  A
O1160      V1167   1.910       .  S
O1160      C1170   1.267       .  A
O1161      V1167   1.900       .  S
O1161      C1171   1.263       .  A
O1162      V3343   1.895       .  S
O1162      C1172   1.264       .  A
O1163      V3344   1.902       .  S
O1163      C1172   1.264       .  A
O1164      V1168   1.901       .  S
O1164      C1171   1.266       .  A
O1165      V3344   1.903       .  S
O1165      C3346   1.265       .  A
O1166      V1168   1.907   1_655  S
O1166      C1169   1.266       .  A
V1167      O3335   1.908   1_455  S
V1167      O3338   1.893   1_455  S
V1167      V1168   2.084       .  T
V1168      O3339   1.903   1_455  S
V1168      O3341   1.902       .  S
C1169      O3335   1.267       .  A
C1169      C2118   1.488       .  S
C1170      O3341   1.265       .  A
C1170      C2018   1.495       .  S
C1171      C2011   1.490       .  S
C1172      C2001   1.478       .  S
O1173      V1181   1.921       .  S
O1174      V1181   1.914       .  S
O1175      V1181   1.897       .  S
O1175      C1185   1.263       .  A
O1176      V1181   1.898       .  S
O1176      C1186   1.263       .  A
O1177      V1182   1.904       .  S
O1178      V1182   1.907       .  S
O1179      V1182   1.910       .  S
O1179      C1184   1.266       .  A
O1180      V1182   1.903       .  S
O1180      C1183   1.265       .  A
C1183      C1988   1.502       .  S
C1184      C2098   1.494       .  S
C1185      C2028   1.486       .  S
C1186      C2038   1.478       .  S
O1187      V1195   1.897       .  S
O1187      C1197   1.263       .  A
O1188      V1195   1.899       .  S
O1188      C1198   1.263       .  A
O1189      V1195   1.902       .  S
O1189      C1199   1.265       .  A
O1190      V1195   1.899       .  S
O1190      C1200   1.264       .  A
O1191      V1196   1.900       .  S
O1191      C1200   1.265       .  A
O1192      V1196   1.897       .  S
O1192      C1199   1.264       .  A
O1193      V1196   1.912       .  S
O1193      C1198   1.267       .  A
O1194      V1196   1.914       .  S
O1194      C1197   1.267       .  A
V1195      V1196   2.084       .  T
C1197      C1978   1.485       .  S
C1198      C2061   1.484       .  S
C1199      C1998   1.480       .  S
C1200      C2008   1.488       .  S
O1201      C2299   1.265       .  A
O1202      V1209   1.904       .  S
O1202      C3388   1.266       .  A
O1203      V1209   1.888   1_565  S
O1203      C1213   1.260       .  A
O1204      C1214   1.263       .  A
O1205      C3390   1.266       .  A
O1206      V1210   1.904   1_565  S
O1206      C3389   1.267       .  A
O1208      V1210   1.897       .  S
O1208      C1211   1.265       .  A
V1209      V3386   2.084       .  T
V1210      V3385   2.083       .  T
C1211      O2289   1.265       .  A
C1211      C1968   1.493       .  S
C1212      O3378   1.266       .  A
C1212      C1958   1.478   1_545  S
C1213      O3382   1.267       .  A
C1213      C1941   1.484       .  S
C1214      O3381   1.265       .  A
C1214      C1948   1.485       .  S
O1215      V1223   1.908       .  S
O1215      C3401   1.266       .  A
O1216      V1223   1.912       .  S
O1216      C3402   1.267       .  A
O1217      V1223   1.907       .  S
O1217      C1227   1.266       .  A
O1218      V1223   1.903       .  S
O1218      C1228   1.267       .  A
O1219      V1224   1.893       .  S
O1219      C3404   1.261       .  A
O1220      V1224   1.889       .  S
O1220      C3403   1.263       .  A
O1221      V1224   1.902       .  S
O1221      C1226   1.265       .  A
O1222      V1224   1.899       .  S
O1222      C1225   1.264       .  A
V1223      V3400   2.084       .  T
V1224      V3399   2.084       .  T
C1225      O3391   1.266       .  A
C1225      C1931   1.482       .  S
C1226      O3392   1.267       .  A
C1226      C1918   1.490       .  S
C1227      O3396   1.263       .  A
C1227      C1951   1.485       .  S
C1228      O3395   1.262       .  A
C1228      C1938   1.487       .  S
O1230      V1237   1.905       .  S
O1230      C1240   1.266       .  A
O1231      V1237   1.894       .  S
O1231      C1241   1.262       .  A
O1232      C1242   1.264       .  A
O1233      C1242   1.266       .  A
O1234      V1238   1.906       .  S
O1234      C1241   1.267       .  A
O1236      V1238   1.898       .  S
O1236      C1239   1.264       .  A
V1237      V1238   2.085       .  T
C1239      C1911   1.484       .  S
C1240      C1901   1.476       .  S
C1241      C1888   1.480       .  S
C1242      C1878   1.489       .  S
O1243      V1251   1.907       .  S
O1243      C1253   1.265       .  A
O1244      V1251   1.907       .  S
O1244      C1254   1.266       .  A
O1245      V1251   1.899       .  S
O1245      C1255   1.265       .  A
O1246      V1251   1.896       .  S
O1246      C1256   1.263       .  A
O1247      V1252   1.904       .  S
O1247      C1256   1.266       .  A
O1248      V1252   1.896       .  S
O1248      C1255   1.263       .  A
O1249      V1252   1.913       .  S
O1249      C1254   1.267       .  A
O1250      V1252   1.911       .  S
O1250      C1253   1.267       .  A
V1251      V1252   2.084       .  T
C1253      C1858   1.486       .  S
C1254      C1868   1.496       .  S
C1255      C1881   1.488       .  S
C1256      C1891   1.479       .  S
O1257      C2355   1.264       .  A
O1258      V1265   1.904       .  S
O1258      C3444   1.266       .  A
O1259      V1265   1.908       .  S
O1259      C1269   1.267       .  A
O1260      C1270   1.267       .  A
O1261      C3446   1.263       .  A
O1262      V1266   1.895       .  S
O1262      C3445   1.263       .  A
O1264      V1266   1.901       .  S
O1264      C1267   1.265       .  A
V1265      V3442   2.084       .  T
V1266      V3441   2.084       .  T
C1267      O2345   1.264       .  A
C1267      C1848   1.475       .  S
C1268      O3434   1.266       .  A
C1268      C1971   1.493       .  S
C1269      O3438   1.263       .  A
C1269      C1828   1.479       .  S
C1270      O3437   1.263       .  A
C1270      C1838   1.484       .  S
O1271      V1279   1.904       .  S
O1271      C3457   1.267       .  A
O1272      V1279   1.908       .  S
O1272      C3458   1.266       .  A
O1273      V1279   1.897       .  S
O1273      C1283   1.263       .  A
O1274      V1279   1.892       .  S
O1274      C1284   1.263       .  A
O1275      V1280   1.910       .  S
O1275      C3460   1.267       .  A
O1276      V1280   1.907       .  S
O1276      C3459   1.267       .  A
O1277      V1280   1.902       .  S
O1277      C1282   1.265       .  A
O1278      V1280   1.902       .  S
O1278      C1281   1.264       .  A
V1279      V3456   2.085       .  T
V1280      V3455   2.085       .  T
C1281      O3447   1.267       .  A
C1281      C1821   1.485       .  S
C1282      O3448   1.266       .  A
C1282      C1928   1.484       .  S
C1283      O3452   1.267       .  A
C1283      C1841   1.483       .  S
C1284      O3451   1.267       .  A
C1284      C1831   1.481       .  S
O1286      V1293   1.913       .  S
O1286      C1296   1.267       .  A
O1287      V1293   1.899       .  S
O1287      C1297   1.265       .  A
O1288      C1298   1.264       .  A
O1289      C1298   1.265       .  A
O1290      V1294   1.900       .  S
O1290      C1297   1.264       .  A
O1292      V1294   1.899       .  S
O1292      C1295   1.264       .  A
V1293      V1294   2.084       .  T
C1295      C1908   1.486   1_565  S
C1296      C1808   1.488       .  S
C1297      C1791   1.483       .  S
C1298      C1798   1.479       .  S
O1299      V1307   1.905       .  S
O1299      C1309   1.266       .  A
O1300      V1307   1.904       .  S
O1300      C1310   1.267       .  A
O1301      V1307   1.899       .  S
O1301      C1311   1.264       .  A
O1302      V1307   1.899       .  S
O1302      C1312   1.264       .  A
O1303      V1308   1.902       .  S
O1303      C1312   1.265       .  A
O1304      V1308   1.898       .  S
O1304      C1311   1.264       .  A
O1305      V1308   1.915       .  S
O1305      C1310   1.267       .  A
O1306      V1308   1.912       .  S
O1306      C1309   1.267       .  A
V1307      V1308   2.085       .  T
C1309      C1778   1.491       .  S
C1310      C1871   1.497       .  S
C1311      C1801   1.480       .  S
C1312      C1788   1.482       .  S
O1313      V3497   1.914       .  S
O1313      C2411   1.267       .  A
O1314      V1321   1.913       .  S
O1315      V1321   1.898       .  S
O1315      C1325   1.263       .  A
O1316      V3497   1.896   1_455  S
O1316      C1326   1.263       .  A
O1317      V3498   1.901   1_455  S
O1318      V1322   1.895       .  S
O1319      V3498   1.901       .  S
O1319      C3500   1.264       .  A
O1320      V1322   1.899       .  S
O1320      C1323   1.266       .  A
V1321      O3489   1.915       .  S
V1321      O3492   1.896       .  S
V1322      O3493   1.901       .  S
V1322      O3495   1.900       .  S
C1323      O2401   1.267       .  A
C1323      C1758   1.499       .  S
C1324      O3495   1.264       .  A
C1324      C1771   1.493       .  S
C1325      C1738   1.478       .  S
C1326      C1748   1.489       .  S
O1327      V3511   1.903       .  S
O1327      C3513   1.266       .  A
O1328      V1335   1.907       .  S
O1328      C1338   1.265       .  A
O1329      V1335   1.903       .  S
O1329      C1339   1.265       .  A
O1330      V3511   1.902       .  S
O1330      C1340   1.265       .  A
O1331      V3512   1.899       .  S
O1331      C1340   1.264       .  A
O1332      V1336   1.901       .  S
O1332      C1339   1.264       .  A
O1333      V3512   1.900       .  S
O1333      C3514   1.266       .  A
O1334      V1336   1.900       .  S
O1334      C1337   1.264       .  A
V1335      O3503   1.904       .  S
V1335      O3506   1.901   1_455  S
V1335      V1336   2.084       .  T
V1336      O3507   1.900   1_455  S
V1336      O3509   1.897       .  S
C1337      O3503   1.266       .  A
C1337      C1721   1.488       .  S
C1338      O3509   1.265       .  A
C1338      C1731   1.493       .  S
C1339      C1708   1.484       .  S
C1340      C1701   1.483       .  S
O1341      V1349   1.908       .  S
O1342      V1349   1.909       .  S
O1343      V1349   1.898       .  S
O1343      C1353   1.264       .  A
O1344      V1349   1.896       .  S
O1344      C1354   1.265       .  A
O1345      V1350   1.898       .  S
O1346      V1350   1.897       .  S
O1347      V1350   1.902       .  S
O1347      C1352   1.266       .  A
O1348      V1350   1.904       .  S
O1348      C1351   1.264       .  A
C1351      C1688   1.496       .  S
C1352      C1678   1.492       .  S
C1353      C1741   1.479       .  S
C1354      C1751   1.488       .  S
O1355      V1363   1.900       .  S
O1355      C1365   1.264       .  A
O1356      V1363   1.900       .  S
O1356      C1366   1.264       .  A
O1357      V1363   1.903       .  S
O1357      C1367   1.265       .  A
O1358      V1363   1.902       .  S
O1358      C1368   1.266       .  A
O1359      V1364   1.899       .  S
O1359      C1368   1.263       .  A
O1360      V1364   1.898       .  S
O1360      C1367   1.264       .  A
O1361      V1364   1.911       .  S
O1361      C1366   1.267       .  A
O1362      V1364   1.913       .  S
O1362      C1365   1.269       .  A
V1363      V1364   2.085       .  T
C1365      C1668   1.491       .  S
C1366      C1658   1.486       .  S
C1367      C1698   1.482       .  S
C1368      C1711   1.480       .  S
O1369      V3553   1.904       .  S
O1369      C2467   1.267       .  A
O1370      V1377   1.903       .  S
O1371      V1377   1.899   1_455  S
O1371      C1381   1.266       .  A
O1372      V3553   1.902       .  S
O1372      C1382   1.265       .  A
O1373      V3554   1.895       .  S
O1374      V1378   1.899   1_455  S
O1375      V3554   1.902       .  S
O1375      C3556   1.265       .  A
O1376      V1378   1.909   1_455  S
O1376      C1379   1.266       .  A
V1377      O3545   1.904   1_655  S
V1377      O3548   1.900       .  S
V1378      O3549   1.895       .  S
V1378      O3551   1.905       .  S
C1379      O2457   1.267       .  A
C1379      C1768   1.494       .  S
C1380      O3551   1.266       .  A
C1380      C1961   1.483       .  S
C1381      C1648   1.488       .  S
C1382      C1638   1.483       .  S
O1383      V3567   1.909       .  S
O1383      C3569   1.267       .  A
O1384      V1391   1.908       .  S
O1384      C1394   1.266       .  A
O1385      V1391   1.909       .  S
O1385      C1395   1.266       .  A
O1386      V3567   1.898       .  S
O1386      C1396   1.264       .  A
O1387      V3568   1.896       .  S
O1387      C1396   1.264       .  A
O1388      V1392   1.897       .  S
O1388      C1395   1.265       .  A
O1389      V3568   1.904       .  S
O1389      C3570   1.265       .  A
O1390      V1392   1.899       .  S
O1390      C1393   1.264       .  A
V1391      O3559   1.909       .  S
V1391      O3562   1.899   1_455  S
V1391      V1392   2.083       .  T
V1392      O3563   1.896   1_455  S
V1392      O3565   1.903       .  S
C1393      O3559   1.267       .  A
C1393      C1728   1.494       .  S
C1394      O3565   1.265       .  A
C1394      C1921   1.482   1_455  S
C1395      C1628   1.487       .  S
C1396      C1618   1.481       .  S
O1397      V1405   1.900       .  S
O1398      V1405   1.903       .  S
O1399      V1405   1.895       .  S
O1399      C1409   1.265       .  A
O1400      V1405   1.900       .  S
O1400      C1410   1.266       .  A
O1401      V1406   1.899       .  S
O1402      V1406   1.901       .  S
O1403      V1406   1.904       .  S
O1403      C1408   1.267       .  A
O1404      V1406   1.902       .  S
O1404      C1407   1.265       .  A
C1407      C1898   1.478       .  S
C1408      C1691   1.494       .  S
C1409      C1641   1.483       .  S
C1410      C1651   1.488       .  S
O1411      V1419   1.911       .  S
O1411      C1421   1.267       .  A
O1412      V1419   1.911       .  S
O1412      C1422   1.267       .  A
O1413      V1419   1.899       .  S
O1413      C1423   1.263       .  A
O1414      V1419   1.899       .  S
O1414      C1424   1.264       .  A
O1415      V1420   1.905       .  S
O1415      C1424   1.266       .  A
O1416      V1420   1.896       .  S
O1416      C1423   1.264       .  A
O1417      V1420   1.906       .  S
O1417      C1422   1.265       .  A
O1418      V1420   1.909       .  S
O1418      C1421   1.267       .  A
V1419      V1420   2.084       .  T
C1421      C1861   1.494       .  S
C1422      C1671   1.492       .  S
C1423      C1621   1.480       .  S
C1424      C1631   1.486       .  S
O1425      V3609   1.900       .  S
O1425      C2523   1.264       .  A
O1426      V1433   1.900       .  S
O1427      V1433   1.898   1_455  S
O1427      C1437   1.264       .  A
O1428      V3609   1.900       .  S
O1428      C1438   1.264       .  A
O1429      V3610   1.902       .  S
O1430      V1434   1.903   1_455  S
O1431      V3610   1.919       .  S
O1431      C3612   1.270       .  A
O1432      V1434   1.915       .  S
O1432      C1435   1.268       .  A
V1433      O3601   1.902       .  S
V1433      O3604   1.903       .  S
V1434      O3605   1.902       .  S
V1434      O3607   1.913       .  S
C1435      O2513   1.264       .  A
C1435      C2051   1.494       .  S
C1436      O3607   1.268       .  A
C1436      C1761   1.498       .  S
C1437      C1611   1.486       .  S
C1438      C1598   1.479       .  S
O1439      V3623   1.918       .  S
O1439      C3625   1.268       .  A
O1440      V1447   1.910       .  S
O1440      C1450   1.267       .  A
O1441      V1447   1.898       .  S
O1441      C1451   1.263       .  A
O1442      V3623   1.900       .  S
O1442      C1452   1.263       .  A
O1443      V3624   1.903       .  S
O1443      C1452   1.266       .  A
O1444      V1448   1.904       .  S
O1444      C1451   1.266       .  A
O1445      V3624   1.894       .  S
O1445      C3626   1.264       .  A
O1446      V1448   1.897       .  S
O1446      C1449   1.265       .  A
V1447      O3615   1.914       .  S
V1447      O3618   1.896   1_455  S
V1447      V1448   2.083       .  T
V1448      O3619   1.904   1_455  S
V1448      O3621   1.897       .  S
C1449      O3615   1.267       .  A
C1449      C2021   1.496       .  S
C1450      O3621   1.264       .  A
C1450      C1718   1.489   1_455  S
C1451      C1591   1.481       .  S
C1452      C1581   1.486       .  S
O1453      V1461   1.917       .  S
O1454      V1461   1.917       .  S
O1455      V1461   1.901       .  S
O1455      C1465   1.265       .  A
O1456      V1461   1.901       .  S
O1456      C1466   1.264       .  A
O1457      V1462   1.901       .  S
O1458      V1462   1.902       .  S
O1459      V1462   1.903       .  S
O1459      C1464   1.267       .  A
O1460      V1462   1.901       .  S
O1460      C1463   1.264       .  A
C1463      C1681   1.495       .  S
C1464      C1991   1.500       .  S
C1465      C1601   1.480       .  S
C1466      C1608   1.485       .  S
O1467      V1475   1.903       .  S
O1467      C1477   1.266       .  A
O1468      V1475   1.901       .  S
O1468      C1478   1.265       .  A
O1469      V1475   1.896       .  S
O1469      C1479   1.263       .  A
O1470      V1475   1.896       .  S
O1470      C1480   1.263       .  A
O1471      V1476   1.904       .  S
O1471      C1480   1.266       .  A
O1472      V1476   1.904       .  S
O1472      C1479   1.266       .  A
O1473      V1476   1.907       .  S
O1473      C1478   1.265       .  A
O1474      V1476   1.906       .  S
O1474      C1477   1.265       .  A
V1475      V1476   2.085       .  T
C1477      C1661   1.486       .  S
C1478      C1981   1.484       .  S
C1479      C1578   1.485       .  S
C1480      C1588   1.479       .  S
O1481      C2579   1.267       .  A
O1482      V1489   1.909       .  S
O1482      C3668   1.266       .  A
O1483      V1489   1.904   1_565  S
O1483      C1493   1.266       .  A
O1484      C1494   1.264       .  A
O1485      C3670   1.265       .  A
O1486      V1490   1.900   1_565  S
O1486      C3669   1.264       .  A
O1488      V1490   1.900       .  S
O1488      C1491   1.264       .  A
V1489      V3666   2.086       .  T
V1490      V3665   2.086       .  T
C1491      O2569   1.267       .  A
C1491      C2168   1.489       .  S
C1492      O3658   1.266       .  A
C1492      C1851   1.473   1_545  S
C1493      O3662   1.264       .  A
C1493      C1558   1.483       .  S
C1494      O3661   1.265       .  A
C1494      C1568   1.480       .  S
O1495      V1503   1.916       .  S
O1495      C3681   1.268       .  A
O1496      V1503   1.919       .  S
O1496      C3682   1.270       .  A
O1497      V1503   1.897       .  S
O1497      C1507   1.262       .  A
O1498      V1503   1.895       .  S
O1498      C1508   1.263       .  A
O1499      V1504   1.910       .  S
O1499      C3684   1.267       .  A
O1500      V1504   1.906       .  S
O1500      C3683   1.267       .  A
O1501      V1504   1.896       .  S
O1501      C1506   1.263       .  A
O1502      V1504   1.897       .  S
O1502      C1505   1.264       .  A
V1503      V3680   2.085       .  T
V1504      V3679   2.085       .  T
C1505      O3671   1.268       .  A
C1505      C2128   1.489       .  S
C1506      O3672   1.270       .  A
C1506      C1818   1.493       .  S
C1507      O3676   1.267       .  A
C1507      C1571   1.476       .  S
C1508      O3675   1.267       .  A
C1508      C1561   1.483       .  S
O1510      V1517   1.919       .  S
O1510      C1520   1.268       .  A
O1511      V1517   1.906       .  S
O1511      C1521   1.266       .  A
O1512      C1522   1.267       .  A
O1513      C1522   1.262       .  A
O1514      V1518   1.896       .  S
O1514      C1521   1.262       .  A
O1516      V1518   1.903       .  S
O1516      C1519   1.266       .  A
V1517      V1518   2.086       .  T
C1519      C1811   1.488       .  S
C1520      C2111   1.493       .  S
C1521      C1538   1.478       .  S
C1522      C1548   1.479       .  S
O1523      V1531   1.919       .  S
O1523      C1533   1.269       .  A
O1524      V1531   1.923       .  S
O1524      C1534   1.270       .  A
O1525      V1531   1.896       .  S
O1525      C1535   1.262       .  A
O1526      V1531   1.894       .  S
O1526      C1536   1.262       .  A
O1527      V1532   1.912       .  S
O1527      C1536   1.268       .  A
O1528      V1532   1.910       .  S
O1528      C1535   1.267       .  A
O1529      V1532   1.894       .  S
O1529      C1534   1.263       .  A
O1530      V1532   1.897       .  S
O1530      C1533   1.263       .  A
V1531      V1532   2.085       .  T
C1533      C1781   1.491       .  S
C1534      C2071   1.490       .  S
C1535      C1551   1.479       .  S
C1536      C1541   1.483       .  S
C1537      C1538   1.399       .  A
C1537      C1542   1.397       .  A
C1537      H1544   1.085       .  S
C1538      C1539   1.413       .  A
C1539      C1540   1.402       .  A
C1539     Br1546   1.919       .  S
C1540      C1541   1.403       .  A
C1540      H1545   1.084       .  S
C1541      C1542   1.413       .  A
C1542     Br1543   1.909       .  S
C1547      C1548   1.404       .  A
C1547      C1552   1.402       .  A
C1547      H1554   1.083       .  S
C1548      C1549   1.412       .  A
C1549      C1550   1.400       .  A
C1549     Br1556   1.921       .  S
C1550      C1551   1.402       .  A
C1550      H1555   1.083       .  S
C1551      C1552   1.412       .  A
C1552     Br1553   1.921       .  S
C1557      C3734   1.403       .  A
C1557      C1562   1.399       .  A
C1557      H1564   1.083       .  S
C1558      C3733   1.403       .  A
C1558      C1559   1.414       .  A
C1559      C1560   1.403       .  A
C1559     Br1566   1.921       .  S
C1560      C1561   1.404       .  A
C1560      H1565   1.083       .  S
C1561      C3738   1.413       .  A
C1562      C3737   1.413       .  A
C1562     Br1563   1.920       .  S
C1567      C3744   1.405       .  A
C1567      C1572   1.399       .  A
C1567      H1574   1.083       .  S
C1568      C3743   1.405       .  A
C1568      C1569   1.412       .  A
C1569      C1570   1.401       .  A
C1569     Br1576   1.921       .  S
C1570      C1571   1.404       .  A
C1570      H1575   1.083       .  S
C1571      C3748   1.408       .  A
C1572      C3747   1.408       .  A
C1572     Br1573   1.920       .  S
C1577      C1578   1.404       .  A
C1577      C1582   1.400       .  A
C1577      H1584   1.083       .  S
C1578      C1579   1.415       .  A
C1579      C1580   1.400       .  A
C1579     Br1586   1.922       .  S
C1580      C1581   1.404       .  A
C1580      H1585   1.083       .  S
C1581      C1582   1.414       .  A
C1582     Br1583   1.919       .  S
C1587      C1588   1.402       .  A
C1587      C1592   1.399       .  A
C1587      H1594   1.085       .  S
C1588      C1589   1.413       .  A
C1589      C1590   1.399       .  A
C1589     Br1596   1.921       .  S
C1590      C1591   1.403       .  A
C1590      H1595   1.084       .  S
C1591      C1592   1.414       .  A
C1592     Br1593   1.917       .  S
C1597      C1602   1.400       .  A
C1597      H1604   1.083       .  S
C1598      C1599   1.412       .  A
C1599      C1600   1.401       .  A
C1599     Br1606   1.921       .  S
C1600      H1605   1.083       .  S
C1601      C1602   1.411       .  A
C1602     Br1603   1.918       .  S
C1607      C1612   1.399       .  A
C1607      H1614   1.084       .  S
C1608      C1609   1.414       .  A
C1609      C1610   1.401       .  A
C1609     Br1616   1.921       .  S
C1610      H1615   1.084       .  S
C1611      C1612   1.415       .  A
C1612     Br1613   1.922       .  S
C1617      C1618   1.406       .  A
C1617      C1622   1.398       .  A
C1617      H1624   1.083       .  S
C1618      C1619   1.412       .  A
C1619      C1620   1.398       .  A
C1619     Br1626   1.922       .  S
C1620      C1621   1.405       .  A
C1620      H1625   1.083       .  S
C1621      C1622   1.413       .  A
C1622     Br1623   1.922       .  S
C1627      C1628   1.405       .  A
C1627      C1632   1.399       .  A
C1627      H1634   1.084       .  S
C1628      C1629   1.413       .  A
C1629      C1630   1.403       .  A
C1629     Br1636   1.919       .  S
C1630      C1631   1.406       .  A
C1630      H1635   1.084       .  S
C1631      C1632   1.414       .  A
C1632     Br1633   1.922       .  S
C1637      C1638   1.406       .  A
C1637      C1642   1.401       .  A
C1637      H1644   1.084       .  S
C1639      C1640   1.396       .  A
C1639     Br1646   1.923       .  S
C1640      C1641   1.404       .  A
C1640      H1645   1.084       .  S
C1642     Br1643   1.921       .  S
C1647      C1648   1.406       .  A
C1647      C1652   1.398       .  A
C1647      H1654   1.084       .  S
C1649      C1650   1.400       .  A
C1649     Br1656   1.921       .  S
C1650      C1651   1.406       .  A
C1650      H1655   1.084       .  S
C1652     Br1653   1.922       .  S
C1657      C1658   1.406       .  A
C1657      C1662   1.404   1_554  A
C1657      H1664   1.082       .  S
C1658      C1659   1.413       .  A
C1659      C1660   1.401   1_554  A
C1659     Br1666   1.921       .  S
C1660      C1661   1.404       .  A
C1660      H1665   1.083       .  S
C1661      C1662   1.414       .  A
C1662     Br1663   1.921       .  S
C1667      C1668   1.405       .  A
C1667      C1672   1.404       .  A
C1667      H1674   1.084       .  S
C1668      C1669   1.415       .  A
C1669      C1670   1.404       .  A
C1669     Br1676   1.922       .  S
C1670      C1671   1.406       .  A
C1670      H1675   1.084       .  S
C1671      C1672   1.416       .  A
C1672     Br1673   1.921       .  S
C1677      C1678   1.405       .  A
C1677      C1682   1.401   1_554  A
C1677      H1684   1.078       .  S
C1679      C1680   1.407   1_554  A
C1679     Br1686   1.920       .  S
C1680      H1685   1.077       .  S
C1681      C1682   1.416       .  A
C1682     Br1683   1.922       .  S
C1687      C1688   1.407       .  A
C1687      C1692   1.403       .  A
C1687      H1694   1.083       .  S
C1689      C1690   1.401   1_565  A
C1689     Br1696   1.922   1_565  S
C1690      H1695   1.083       .  S
C1691      C1692   1.416       .  A
C1692     Br1693   1.922       .  S
C1697      C1698   1.404       .  A
C1697      C1702   1.398       .  A
C1697      H1704   1.083       .  S
C1698      C1699   1.412       .  A
C1699      C1700   1.401       .  A
C1699     Br1706   1.921       .  S
C1700      C1701   1.406       .  A
C1700      H1705   1.083       .  S
C1701      C1702   1.413       .  A
C1702     Br1703   1.919       .  S
C1707      C1708   1.405       .  A
C1707      C1712   1.401       .  A
C1707      H1714   1.081       .  S
C1708      C1709   1.413       .  A
C1709      C1710   1.399       .  A
C1709     Br1716   1.920       .  S
C1710      C1711   1.403       .  A
C1710      H1715   1.084       .  S
C1711      C1712   1.412       .  A
C1712     Br1713   1.922       .  S
C1717      C1718   1.407       .  A
C1717      C1722   1.400   1_556  A
C1717      H1724   1.083       .  S
C1718      C3895   1.414   1_655  A
C1719      C3894   1.413       .  A
C1719      C1720   1.402   1_556  A
C1719     Br1726   1.916       .  S
C1720      C3897   1.405       .  A
C1720      H1725   1.083       .  S
C1721      C3896   1.405       .  A
C1721      C1722   1.414   1_455  A
C1722     Br1723   1.922       .  S
C1727      C3904   1.409       .  A
C1727      C1732   1.405       .  A
C1727      H1734   1.082       .  S
C1728      C3903   1.409       .  A
C1728      C1729   1.416       .  A
C1729      C1730   1.398       .  A
C1729     Br1736   1.923       .  S
C1730      C1731   1.405       .  A
C1730      H1735   1.082       .  S
C1731      C3908   1.416       .  A
C1732      C3907   1.416       .  A
C1732     Br1733   1.921       .  S
C1737      C1742   1.396       .  A
C1737      H1744   1.077       .  S
C1738      C1739   1.412       .  A
C1739      C1740   1.401       .  A
C1739     Br1746   1.922       .  S
C1740      C1741   1.407       .  A
C1740      H1745   1.077       .  S
C1742     Br1743   1.922       .  S
C1747      C1752   1.401       .  A
C1747      H1754   1.083       .  S
C1748      C1749   1.415       .  A
C1749      C1750   1.396       .  A
C1749     Br1756   1.919       .  S
C1750      C1751   1.405       .  A
C1750      H1755   1.083       .  S
C1752     Br1753   1.923       .  S
C1757      C1758   1.405       .  A
C1757      C1762   1.400   1_554  A
C1757      H1764   1.083       .  S
C1758      C2847   1.416       .  A
C1759      C2846   1.416       .  A
C1759      C1760   1.407   1_554  A
C1759     Br1766   1.919       .  S
C1760      C1761   1.409       .  A
C1760      H1765   1.083       .  S
C1761      C2850   1.417       .  A
C1762      C2849   1.419       .  A
C1762     Br1763   1.924       .  S
C1767      C2856   1.406       .  A
C1767      C1772   1.401       .  A
C1767      H1774   1.083       .  S
C1768      C2855   1.406   1_455  A
C1768      C1769   1.416       .  A
C1769      C1770   1.406       .  A
C1769     Br1776   1.921       .  S
C1770      C2859   1.407   1_455  A
C1770      H1775   1.082       .  S
C1771      C2858   1.406       .  A
C1771      C1772   1.416       .  A
C1772     Br1773   1.922       .  S
C1777      C1778   1.404       .  A
C1777      C1782   1.402       .  A
C1777      H1784   1.083       .  S
C1778      C1779   1.414       .  A
C1779      C1780   1.407       .  A
C1779     Br1786   1.920       .  S
C1780      C1781   1.406       .  A
C1780      H1785   1.083       .  S
C1781      C1782   1.415       .  A
C1782     Br1783   1.922       .  S
C1787      C1788   1.405       .  A
C1787      C1792   1.400       .  A
C1787      H1794   1.084       .  S
C1788      C1789   1.411       .  A
C1789      C1790   1.399       .  A
C1789     Br1796   1.917       .  S
C1790      C1791   1.405       .  A
C1790      H1795   1.084       .  S
C1791      C1792   1.413       .  A
C1792     Br1793   1.921       .  S
C1797      C1798   1.404       .  A
C1797      C1802   1.399       .  A
C1797      H1804   1.083       .  S
C1798      C1799   1.411       .  A
C1799      C1800   1.398       .  A
C1799     Br1806   1.921       .  S
C1800      C1801   1.405       .  A
C1800      H1805   1.084       .  S
C1801      C1802   1.412       .  A
C1802     Br1803   1.921       .  S
C1807      C1808   1.407       .  A
C1807      C1812   1.407       .  A
C1807      H1814   1.083       .  S
C1809      C1810   1.400       .  A
C1809     Br1816   1.922       .  S
C1810      H1815   1.083       .  S
C1811      C1812   1.413       .  A
C1812     Br1813   1.918       .  S
C1817      C1818   1.409       .  A
C1817      C1822   1.403       .  A
C1817      H1824   1.082       .  S
C1818      C3995   1.412       .  A
C1819      C3994   1.412       .  A
C1819      C1820   1.400       .  A
C1819     Br1826   1.907       .  S
C1820      C3997   1.403       .  A
C1820      H1825   1.083       .  S
C1821      C3996   1.403       .  A
C1821      C1822   1.413       .  A
C1822     Br1823   1.921   1_655  S
C1827      C4004   1.406       .  A
C1827      C1832   1.401       .  A
C1827      H1834   1.084       .  S
C1828      C4003   1.406       .  A
C1828      C1829   1.409       .  A
C1829      C1830   1.399       .  A
C1829     Br1836   1.920       .  S
C1830      C1831   1.406       .  A
C1830      H1835   1.084       .  S
C1831      C4008   1.410       .  A
C1832      C4007   1.410       .  A
C1832     Br1833   1.920   1_655  S
C1837      C1838   1.404       .  A
C1837      C1842   1.400       .  A
C1837      H1844   1.084       .  S
C1838      C4015   1.414       .  A
C1839      C4014   1.414       .  A
C1839      C1840   1.401       .  A
C1839     Br1846   1.922       .  S
C1840      C4017   1.404       .  A
C1840      H1845   1.084       .  S
C1841      C4016   1.404       .  A
C1841      C1842   1.413       .  A
C1842     Br1843   1.920       .  S
C1847      C4024   1.405   1_545  A
C1847      C1852   1.404       .  A
C1847      H1854   1.084       .  S
C1848      C4023   1.405   1_565  A
C1849      C1850   1.398       .  A
C1849     Br1856   1.920       .  S
C1850      H1855   1.084       .  S
C1851      C4028   1.409   1_565  A
C1852      C4027   1.409   1_545  A
C1852     Br1853   1.919       .  S
C1857      C1858   1.404       .  A
C1857      C1862   1.405       .  A
C1857      H1864   1.083       .  S
C1858      C1859   1.411       .  A
C1859      C1860   1.405       .  A
C1859     Br1866   1.921       .  S
C1860      C1861   1.408       .  A
C1860      H1865   1.083       .  S
C1861      C1862   1.415       .  A
C1862     Br1863   1.919       .  S
C1867      C1868   1.408       .  A
C1867      C1872   1.408       .  A
C1867      H1874   1.084       .  S
C1868      C1869   1.415       .  A
C1869      C1870   1.401       .  A
C1869     Br1876   1.922       .  S
C1870      C1871   1.406       .  A
C1870      H1875   1.084       .  S
C1871      C1872   1.416       .  A
C1872     Br1873   1.919       .  S
C1877      C1878   1.407       .  A
C1877      C1882   1.396       .  A
C1877      H1884   1.083       .  S
C1878      C1879   1.415       .  A
C1879      C1880   1.401       .  A
C1879     Br1886   1.921       .  S
C1880      C1881   1.408       .  A
C1880      H1885   1.083       .  S
C1881      C1882   1.414       .  A
C1882     Br1883   1.922       .  S
C1887      C1888   1.404       .  A
C1887      C1892   1.399       .  A
C1887      H1894   1.084       .  S
C1888      C1889   1.413       .  A
C1889      C1890   1.400       .  A
C1889     Br1896   1.922       .  S
C1890      C1891   1.403       .  A
C1890      H1895   1.084       .  S
C1891      C1892   1.412       .  A
C1892     Br1893   1.921       .  S
C1897      C1902   1.399       .  A
C1897      H1904   1.084       .  S
C1898      C1899   1.411       .  A
C1899      C1900   1.401       .  A
C1899     Br1906   1.920       .  S
C1900      C1901   1.404       .  A
C1900      H1905   1.084       .  S
C1902     Br1903   1.921       .  S
C1907      C1912   1.400       .  A
C1907      H1914   1.083       .  S
C1908      C1909   1.413       .  A
C1909      C1910   1.404       .  A
C1909     Br1916   1.921       .  S
C1910      H1915   1.082       .  S
C1911      C1912   1.413       .  A
C1912     Br1913   1.922       .  S
C1917      C1918   1.407   1_455  A
C1917      C1922   1.402       .  A
C1917      H1924   1.084       .  S
C1918      C4095   1.415       .  A
C1919      C4094   1.415       .  A
C1919      C1920   1.405       .  A
C1919     Br1926   1.921       .  S
C1920      C4097   1.405       .  A
C1920      H1925   1.084       .  S
C1921      C4096   1.405       .  A
C1921      C1922   1.408   1_655  A
C1922     Br1923   1.919       .  S
C1927      C1928   1.404       .  A
C1927      C1932   1.401       .  A
C1927      H1934   1.083       .  S
C1928      C4105   1.412       .  A
C1929      C4104   1.412       .  A
C1929      C1930   1.402       .  A
C1929     Br1936   1.916       .  S
C1930      C4107   1.403       .  A
C1930      H1935   1.083       .  S
C1931      C4106   1.404       .  A
C1931      C1932   1.412       .  A
C1932     Br1933   1.921   1_655  S
C1937      C1938   1.405       .  A
C1937      C1942   1.398       .  A
C1937      H1944   1.081       .  S
C1938      C4115   1.417       .  A
C1939      C4114   1.417       .  A
C1939      C1940   1.398       .  A
C1939     Br1946   1.923   1_655  S
C1940      C4117   1.403       .  A
C1940      H1945   1.082   1_655  S
C1941      C4116   1.404       .  A
C1941      C1942   1.415       .  A
C1942     Br1943   1.924       .  S
C1947      C1948   1.408       .  A
C1947      C1952   1.401       .  A
C1947      H1954   1.083       .  S
C1948      C4125   1.412       .  A
C1949      C4124   1.412       .  A
C1949      C1950   1.397       .  A
C1949     Br1956   1.922   1_655  S
C1950      C4127   1.407       .  A
C1950      H1955   1.084   1_655  S
C1951      C4126   1.407       .  A
C1951      C1952   1.413       .  A
C1952     Br1953   1.921       .  S
C1957      C1962   1.403       .  A
C1957      H1964   1.083       .  S
C1958      C4135   1.409       .  A
C1959      C4134   1.409       .  A
C1959      C1960   1.399       .  A
C1959     Br1966   1.921       .  S
C1960      C4137   1.405       .  A
C1960      H1965   1.083       .  S
C1961      C4136   1.405       .  A
C1962     Br1963   1.921       .  S
C1967      C3056   1.406       .  A
C1967      C1972   1.399       .  A
C1967      H1974   1.083       .  S
C1968      C3055   1.406       .  A
C1968      C1969   1.415   1_545  A
C1969      C1970   1.402       .  A
C1969     Br1976   1.921       .  S
C1970      C1971   1.408       .  A
C1970      H1975   1.083       .  S
C1971      C3060   1.416   1_565  A
C1972      C3059   1.417       .  A
C1972     Br1973   1.923       .  S
C1977      C1978   1.405       .  A
C1977      C1982   1.404       .  A
C1977      H1984   1.083       .  S
C1978      C1979   1.413       .  A
C1979      C1980   1.400       .  A
C1979     Br1986   1.921       .  S
C1980      C1981   1.403       .  A
C1980      H1985   1.083       .  S
C1981      C1982   1.413       .  A
C1982     Br1983   1.917       .  S
C1987      C1992   1.411       .  A
C1987      H1994   1.083       .  S
C1988      C1989   1.417       .  A
C1989      C1990   1.401       .  A
C1989     Br1996   1.923       .  S
C1990      C1991   1.405       .  A
C1990      H1995   1.084       .  S
C1992     Br1993   1.920       .  S
C1997      C1998   1.405       .  A
C1997      C2002   1.401       .  A
C1997      H2004   1.084       .  S
C1998      C1999   1.412       .  A
C1999      C2000   1.396       .  A
C1999     Br2006   1.920       .  S
C2000      C2001   1.402       .  A
C2000      H2005   1.084       .  S
C2001      C2002   1.412       .  A
C2002     Br2003   1.919       .  S
C2007      C2008   1.407       .  A
C2007      C2012   1.401       .  A
C2007      H2014   1.084       .  S
C2008      C2009   1.414       .  A
C2009      C2010   1.398       .  A
C2009     Br2016   1.923       .  S
C2010      C2011   1.406       .  A
C2010      H2015   1.084       .  S
C2011      C2012   1.417       .  A
C2012     Br2013   1.923       .  S
C2017      C2018   1.409       .  A
C2017      C2022   1.406       .  A
C2017      H2024   1.083       .  S
C2018      C4195   1.416   1_455  A
C2019      C4194   1.415       .  A
C2019      C2020   1.399       .  A
C2019     Br2026   1.923       .  S
C2020      C4197   1.407       .  A
C2020      H2025   1.083       .  S
C2021      C4196   1.407   1_455  A
C2021      C2022   1.416       .  A
C2022     Br2023   1.920       .  S
C2027      C2032   1.401       .  A
C2027      H2034   1.083       .  S
C2028      C2029   1.415       .  A
C2029      C2030   1.400       .  A
C2029     Br2036   1.920       .  S
C2030      H2035   1.083       .  S
C2031      C2032   1.415       .  A
C2032     Br2033   1.921       .  S
C2037      C2042   1.399       .  A
C2037      H2044   1.085       .  S
C2038      C2039   1.412       .  A
C2039      C2040   1.402       .  A
C2039     Br2046   1.920       .  S
C2040      H2045   1.084       .  S
C2041      C2042   1.412       .  A
C2042     Br2043   1.921       .  S
C2047      C2052   1.402       .  A
C2047      H2054   1.083       .  S
C2048      C4225   1.415       .  A
C2049      C4224   1.415       .  A
C2049      C2050   1.406       .  A
C2049     Br2056   1.920       .  S
C2050      C4227   1.405       .  A
C2050      H2055   1.083       .  S
C2051      C4226   1.407       .  A
C2052     Br2053   1.922       .  S
C2057      C2058   1.404       .  A
C2057      C2062   1.402       .  A
C2057      H2064   1.084       .  S
C2058      C2059   1.415       .  A
C2059      C2060   1.404       .  A
C2059     Br2066   1.920       .  S
C2060      C2061   1.404       .  A
C2060      H2065   1.084       .  S
C2061      C2062   1.413       .  A
C2062     Br2063   1.921       .  S
C2067      C2068   1.408       .  A
C2067      C2072   1.408       .  A
C2067      H2074   1.083       .  S
C2068      C2069   1.411       .  A
C2069      C2070   1.401       .  A
C2069     Br2076   1.921       .  S
C2070      C2071   1.406       .  A
C2070      H2075   1.084       .  S
C2071      C2072   1.412       .  A
C2072     Br2073   1.917       .  S
C2077      C2078   1.406       .  A
C2077      C2082   1.397       .  A
C2077      H2084   1.084       .  S
C2078      C2079   1.414       .  A
C2079      C2080   1.395       .  A
C2079     Br2086   1.923       .  S
C2080      C2081   1.405       .  A
C2080      H2085   1.084       .  S
C2081      C2082   1.415       .  A
C2082     Br2083   1.924       .  S
C2087      C2088   1.406       .  A
C2087      C2092   1.399       .  A
C2087      H2094   1.084       .  S
C2088      C2089   1.414       .  A
C2089      C2090   1.396       .  A
C2089     Br2096   1.923       .  S
C2090      C2091   1.406       .  A
C2090      H2095   1.084       .  S
C2091      C2092   1.415       .  A
C2092     Br2093   1.923       .  S
C2097      C2102   1.403       .  A
C2097      H2104   1.083       .  S
C2098      C2099   1.416       .  A
C2099      C2100   1.410       .  A
C2099     Br2106   1.920       .  S
C2100      C2101   1.407       .  A
C2100      H2105   1.083       .  S
C2102     Br2103   1.920       .  S
C2107      C2108   1.410       .  A
C2107      C2112   1.411       .  A
C2107      H2114   1.083       .  S
C2109      C2110   1.399       .  A
C2109     Br2116   1.921       .  S
C2110      H2115   1.083       .  S
C2111      C2112   1.415       .  A
C2112     Br2113   1.920       .  S
C2117      C4294   1.406       .  A
C2117      C2122   1.403       .  A
C2117      H2124   1.084       .  S
C2118      C4293   1.406       .  A
C2118      C2119   1.413   1_655  A
C2119      C2120   1.405       .  A
C2119     Br2126   1.919       .  S
C2120      C2121   1.405   1_455  A
C2120      H2125   1.084       .  S
C2121      C4298   1.411       .  A
C2122      C4297   1.411       .  A
C2122     Br2123   1.920       .  S
C2127      C2128   1.404       .  A
C2127      C2132   1.399       .  A
C2127      H2134   1.084       .  S
C2128      C4305   1.413       .  A
C2129      C4304   1.413       .  A
C2129      C2130   1.408       .  A
C2129     Br2136   1.919       .  S
C2130      C4307   1.408       .  A
C2130      H2135   1.083       .  S
C2131      C4306   1.408       .  A
C2131      C2132   1.414       .  A
C2132     Br2133   1.923   1_655  S
C2137      C2138   1.404       .  A
C2137      C2142   1.397       .  A
C2137      H2144   1.084   1_655  S
C2138      C4315   1.413       .  A
C2139      C4314   1.413       .  A
C2139      C2140   1.399       .  A
C2139     Br2146   1.923       .  S
C2140      C2141   1.405       .  A
C2140      H2145   1.084       .  S
C2141      C4318   1.412       .  A
C2142      C4317   1.412       .  A
C2142     Br2143   1.922   1_655  S
C2147      C4324   1.406       .  A
C2147      C2152   1.400       .  A
C2147      H2154   1.083       .  S
C2148      C4323   1.406       .  A
C2148      C2149   1.414       .  A
C2149      C2150   1.400       .  A
C2149     Br2156   1.921   1_655  S
C2150      C4327   1.406       .  A
C2150      H2155   1.084   1_655  S
C2151      C4326   1.406       .  A
C2151      C2152   1.413       .  A
C2152     Br2153   1.922       .  S
C2157      C2162   1.405       .  A
C2157      H2164   1.083       .  S
C2158      C4335   1.414       .  A
C2159      C4334   1.413   1_455  A
C2159      C2160   1.404       .  A
C2159     Br2166   1.919       .  S
C2160      H2165   1.083       .  S
C2161      C4338   1.412       .  A
C2162      C4337   1.412       .  A
C2162     Br2163   1.920       .  S
C2167      C3256   1.407       .  A
C2167      C2172   1.406       .  A
C2167      H2174   1.083       .  S
C2168      C3255   1.407       .  A
C2168      C2169   1.413   1_545  A
C2169      C2170   1.399       .  A
C2169     Br2176   1.922   1_655  S
C2170      C3259   1.406   1_565  A
C2170      H2175   1.083       .  S
C2171      C3258   1.407       .  A
C2171      C2172   1.416       .  A
C2172     Br2173   1.921       .  S
O2177      V3273   1.906       .  S
O2178      V2185   1.902       .  S
O2179      V2185   1.901       .  S
O2179      C2189   1.264       .  A
O2180      V3273   1.898       .  S
O2180      C2190   1.265       .  A
O2181      V3274   1.896       .  S
O2182      V2186   1.902       .  S
O2183      V3274   1.909       .  S
O2183      C3276   1.266       .  A
O2184      V2186   1.911   1_565  S
O2184      C2187   1.267       .  A
V2185      O3265   1.906   1_545  S
V2185      O3268   1.898   1_545  S
V2186      O3269   1.896   1_545  S
V2186      O3271   1.909       .  S
C2187      C3246   1.488       .  S
C2188      O3271   1.266       .  A
C2188      C3259   1.492       .  S
C2189      C3236   1.487       .  S
C2190      C3226   1.478       .  S
O2191      V2199   1.912       .  S
O2192      V2199   1.915       .  S
O2193      V2199   1.901       .  S
O2193      C2203   1.264       .  A
O2194      V2199   1.897       .  S
O2194      C2204   1.264       .  A
O2195      V2200   1.897       .  S
O2196      V2200   1.899       .  S
O2197      V2200   1.901       .  S
O2197      C2202   1.265       .  A
O2198      V2200   1.903       .  S
O2198      C2201   1.264       .  A
C2201      C3209   1.485       .  S
C2202      C3219   1.492       .  S
C2203      C3239   1.486       .  S
C2204      C3229   1.478       .  S
O2205      V3301   1.913       .  S
O2205      C3303   1.266       .  A
O2206      V2213   1.908       .  S
O2206      C2216   1.267       .  A
O2207      V2213   1.893       .  S
O2207      C2217   1.264       .  A
O2208      V3301   1.896   1_545  S
O2208      C2218   1.263       .  A
O2209      V3302   1.896   1_545  S
O2209      C2218   1.264       .  A
O2210      V2214   1.894       .  S
O2210      C2217   1.262       .  A
O2211      V3302   1.912       .  S
O2211      C3304   1.266       .  A
O2212      V2214   1.905       .  S
O2212      C2215   1.266       .  A
V2213      O3293   1.913       .  S
V2213      O3296   1.896       .  S
V2213      V2214   2.084       .  T
V2214      O3297   1.896       .  S
V2214      O3299   1.912       .  S
C2215      O3293   1.266       .  A
C2215      C3196   1.491       .  S
C2216      O3299   1.266       .  A
C2216      C4277   1.488       .  S
C2217      C3166   1.482       .  S
C2218      C3176   1.484       .  S
O2219      V2227   1.907       .  S
O2219      C2229   1.265       .  A
O2220      V2227   1.905       .  S
O2220      C2230   1.266       .  A
O2221      V2227   1.898       .  S
O2221      C2231   1.263       .  A
O2222      V2227   1.892       .  S
O2222      C2232   1.265       .  A
O2223      V2228   1.894       .  S
O2223      C2232   1.262       .  A
O2224      V2228   1.895       .  S
O2224      C2231   1.265       .  A
O2225      V2228   1.912       .  S
O2225      C2230   1.266       .  A
O2226      V2228   1.908       .  S
O2226      C2229   1.267       .  A
V2227      V2228   2.083       .  T
C2229      C3146   1.488       .  S
C2230      C3156   1.489       .  S
C2231      C3179   1.486       .  S
C2232      C3169   1.482       .  S
O2234      V2241   1.904       .  S
O2234      C3332   1.266       .  A
O2235      V2241   1.895       .  S
O2235      C2245   1.263       .  A
O2236      C2246   1.264       .  A
O2237      C3334   1.266       .  A
O2238      V2242   1.910       .  S
O2238      C3333   1.267       .  A
O2240      V2242   1.911       .  S
O2240      C2243   1.267       .  A
V2241      V3330   2.085       .  T
V2242      V3329   2.085       .  T
C2243      C3249   1.488       .  S
C2244      O3322   1.266       .  A
C2244      C3136   1.491       .  S
C2245      O3326   1.267       .  A
C2245      C3129   1.480       .  S
C2246      O3325   1.266       .  A
C2246      C3119   1.484       .  S
O2248      V2255   1.910       .  S
O2248      C2258   1.267       .  A
O2249      V2255   1.902       .  S
O2249      C2259   1.264       .  A
O2250      C2260   1.264       .  A
O2251      C2260   1.264       .  A
O2252      V2256   1.899       .  S
O2252      C2259   1.266       .  A
O2254      V2256   1.907       .  S
O2254      C2257   1.266       .  A
V2255      V2256   2.084       .  T
C2257      C3206   1.489       .  S
C2258      C3106   1.496       .  S
C2259      C3099   1.490       .  S
C2260      C3089   1.478       .  S
O2261      V2269   1.920       .  S
O2261      C3359   1.270       .  A
O2262      V2269   1.914       .  S
O2262      C3360   1.268       .  A
O2263      V2269   1.895       .  S
O2263      C2273   1.262       .  A
O2264      V2269   1.897       .  S
O2264      C2274   1.263       .  A
O2265      V2270   1.906       .  S
O2265      C3362   1.266       .  A
O2266      V2270   1.908       .  S
O2266      C3361   1.267       .  A
O2267      V2270   1.907       .  S
O2267      C2272   1.265       .  A
O2268      V2270   1.902       .  S
O2268      C2271   1.264       .  A
V2269      V3358   2.083       .  T
V2270      V3357   2.083       .  T
C2271      O3349   1.270       .  A
C2271      C3076   1.501       .  S
C2272      O3350   1.268       .  A
C2272      C3186   1.491       .  S
C2273      O3354   1.267       .  A
C2273      C3116   1.485       .  S
C2274      O3353   1.266       .  A
C2274      C3126   1.478       .  S
O2275      V2283   1.896       .  S
O2275      C2285   1.263       .  A
O2276      V2283   1.898       .  S
O2276      C2286   1.263       .  A
O2277      V2283   1.902       .  S
O2277      C2287   1.265       .  A
O2278      V2283   1.899       .  S
O2278      C2288   1.264       .  A
O2279      V2284   1.900       .  S
O2279      C2288   1.265       .  A
O2280      V2284   1.896       .  S
O2280      C2287   1.263       .  A
O2281      V2284   1.914       .  S
O2281      C2286   1.268       .  A
O2282      V2284   1.916       .  S
O2282      C2285   1.268       .  A
V2283      V2284   2.084       .  T
C2285      C3066   1.486       .  S
C2286      C3149   1.485       .  S
C2287      C3086   1.480       .  S
C2288      C3096   1.488       .  S
O2289      V3385   1.906       .  S
O2290      V2297   1.905       .  S
O2291      V2297   1.887       .  S
O2291      C2301   1.260       .  A
O2292      V3385   1.894       .  S
O2292      C2302   1.263       .  A
O2293      V3386   1.902       .  S
O2294      V2298   1.904       .  S
O2295      V3386   1.901       .  S
O2295      C3388   1.263       .  A
O2296      V2298   1.897       .  S
O2296      C2299   1.265       .  A
V2297      O3377   1.906       .  S
V2297      O3380   1.894       .  S
V2298      O3381   1.902       .  S
V2298      O3383   1.901       .  S
C2299      C3056   1.492       .  S
C2300      O3383   1.263       .  A
C2300      C3046   1.477       .  S
C2301      C3029   1.485       .  S
C2302      C3036   1.485       .  S
O2303      V2311   1.908       .  S
O2304      V2311   1.912       .  S
O2305      V2311   1.906       .  S
O2305      C2315   1.266       .  A
O2306      V2311   1.902       .  S
O2306      C2316   1.267       .  A
O2307      V2312   1.893       .  S
O2308      V2312   1.889       .  S
O2309      V2312   1.902       .  S
O2309      C2314   1.265       .  A
O2310      V2312   1.899       .  S
O2310      C2313   1.264       .  A
C2313      C3019   1.481       .  S
C2314      C3006   1.490       .  S
C2315      C3039   1.484       .  S
C2316      C3026   1.487       .  S
O2317      V3413   1.909       .  S
O2317      C3415   1.267       .  A
O2318      V2325   1.906   1_565  S
O2318      C2328   1.266       .  A
O2319      V2325   1.894       .  S
O2319      C2329   1.262       .  A
O2320      V3413   1.890       .  S
O2320      C2330   1.264       .  A
O2321      V3414   1.907       .  S
O2321      C2330   1.266       .  A
O2322      V2326   1.906       .  S
O2322      C2329   1.267       .  A
O2323      V3414   1.897       .  S
O2323      C3416   1.263       .  A
O2324      V2326   1.899       .  S
O2324      C2327   1.264       .  A
V2325      O3405   1.909       .  S
V2325      O3408   1.890   1_545  S
V2325      V2326   2.085       .  T
V2326      O3409   1.907   1_545  S
V2326      O3411   1.897       .  S
C2327      O3405   1.267       .  A
C2327      C2999   1.486       .  S
C2328      O3411   1.263   1_565  A
C2328      C2989   1.478       .  S
C2329      C2976   1.480       .  S
C2330      C2966   1.489       .  S
O2331      V2339   1.907       .  S
O2331      C2341   1.266       .  A
O2332      V2339   1.907       .  S
O2332      C2342   1.266       .  A
O2333      V2339   1.898       .  S
O2333      C2343   1.264       .  A
O2334      V2339   1.896       .  S
O2334      C2344   1.263       .  A
O2335      V2340   1.904       .  S
O2335      C2344   1.266       .  A
O2336      V2340   1.895       .  S
O2336      C2343   1.263       .  A
O2337      V2340   1.912       .  S
O2337      C2342   1.267       .  A
O2338      V2340   1.911       .  S
O2338      C2341   1.267       .  A
V2339      V2340   2.084       .  T
C2341      C2946   1.486       .  S
C2342      C2956   1.496       .  S
C2343      C2969   1.488       .  S
C2344      C2979   1.479       .  S
O2345      V3441   1.904       .  S
O2346      V2353   1.904       .  S
O2347      V2353   1.909       .  S
O2347      C2357   1.267       .  A
O2348      V3441   1.905   1_545  S
O2348      C2358   1.267       .  A
O2349      V3442   1.896   1_545  S
O2350      V2354   1.895       .  S
O2351      V3442   1.900       .  S
O2351      C3444   1.264       .  A
O2352      V2354   1.902       .  S
O2352      C2355   1.266       .  A
V2353      O3433   1.904       .  S
V2353      O3436   1.905       .  S
V2354      O3437   1.896       .  S
V2354      O3439   1.900       .  S
C2355      C2936   1.477       .  S
C2356      O3439   1.264       .  A
C2356      C3059   1.493       .  S
C2357      C2916   1.480       .  S
C2358      C2926   1.484       .  S
O2359      V2367   1.903       .  S
O2360      V2367   1.908       .  S
O2361      V2367   1.897       .  S
O2361      C2371   1.263       .  A
O2362      V2367   1.893       .  S
O2362      C2372   1.263       .  A
O2363      V2368   1.910       .  S
O2364      V2368   1.906       .  S
O2365      V2368   1.902       .  S
O2365      C2370   1.265       .  A
O2366      V2368   1.902       .  S
O2366      C2369   1.264       .  A
C2369      C2909   1.486       .  S
C2370      C3016   1.484       .  S
C2371      C2929   1.483       .  S
C2372      C2919   1.481       .  S
O2373      V3469   1.910       .  S
O2373      C3471   1.267       .  A
O2374      V2381   1.912       .  S
O2374      C2384   1.267       .  A
O2375      V2381   1.899       .  S
O2375      C2385   1.265       .  A
O2376      V3469   1.897   1_545  S
O2376      C2386   1.264       .  A
O2377      V3470   1.899   1_545  S
O2377      C2386   1.265       .  A
O2378      V2382   1.900       .  S
O2378      C2385   1.264       .  A
O2379      V3470   1.898       .  S
O2379      C3472   1.264       .  A
O2380      V2382   1.899       .  S
O2380      C2383   1.265       .  A
V2381      O3461   1.910       .  S
V2381      O3464   1.897       .  S
V2381      V2382   2.084       .  T
V2382      O3465   1.899       .  S
V2382      O3467   1.898       .  S
C2383      O3461   1.267       .  A
C2383      C2996   1.486       .  S
C2384      O3467   1.264       .  A
C2384      C2896   1.487       .  S
C2385      C2879   1.483       .  S
C2386      C2886   1.479       .  S
O2387      V2395   1.904       .  S
O2387      C2397   1.266       .  A
O2388      V2395   1.904       .  S
O2388      C2398   1.267       .  A
O2389      V2395   1.899       .  S
O2389      C2399   1.264       .  A
O2390      V2395   1.899       .  S
O2390      C2400   1.265       .  A
O2391      V2396   1.901       .  S
O2391      C2400   1.265       .  A
O2392      V2396   1.898       .  S
O2392      C2399   1.264       .  A
O2393      V2396   1.915       .  S
O2393      C2398   1.267       .  A
O2394      V2396   1.912       .  S
O2394      C2397   1.267       .  A
V2395      V2396   2.085       .  T
C2397      C2866   1.491       .  S
C2398      C2959   1.496       .  S
C2399      C2889   1.480       .  S
C2400      C2876   1.482       .  S
O2402      V2409   1.913       .  S
O2402      C3500   1.268       .  A
O2403      V2409   1.898       .  S
O2403      C2413   1.263       .  A
O2404      C2414   1.263       .  A
O2405      C3502   1.265       .  A
O2406      V2410   1.896       .  S
O2406      C3501   1.265       .  A
O2408      V2410   1.900       .  S
O2408      C2411   1.266       .  A
V2409      V3498   2.083       .  T
V2410      V3497   2.083       .  T
C2411      C2846   1.498       .  S
C2412      O3490   1.268       .  A
C2412      C2859   1.494       .  S
C2413      O3494   1.265       .  A
C2413      C2826   1.479       .  S
C2414      O3493   1.265       .  A
C2414      C2836   1.490       .  S
O2416      V2423   1.906       .  S
O2416      C2426   1.265       .  A
O2417      V2423   1.904       .  S
O2417      C2427   1.266       .  A
O2418      C2428   1.264       .  A
O2419      C2428   1.265       .  A
O2420      V2424   1.900       .  S
O2420      C2427   1.264       .  A
O2422      V2424   1.903       .  S
O2422      C2425   1.265       .  A
V2423      V2424   2.084       .  T
C2425      C2809   1.488       .  S
C2426      C2819   1.494       .  S
C2427      C2796   1.483       .  S
C2428      C2789   1.483       .  S
O2429      V2437   1.910       .  S
O2429      C3527   1.268       .  A
O2430      V2437   1.910       .  S
O2430      C3528   1.266       .  A
O2431      V2437   1.898       .  S
O2431      C2441   1.264       .  A
O2432      V2437   1.896       .  S
O2432      C2442   1.265       .  A
O2433      V2438   1.900       .  S
O2433      C3530   1.263       .  A
O2434      V2438   1.899       .  S
O2434      C3529   1.264       .  A
O2435      V2438   1.902       .  S
O2435      C2440   1.266       .  A
O2436      V2438   1.904       .  S
O2436      C2439   1.264       .  A
V2437      V3526   2.083       .  T
V2438      V3525   2.083       .  T
C2439      O3517   1.268       .  A
C2439      C2776   1.497       .  S
C2440      O3518   1.266       .  A
C2440      C2766   1.493       .  S
C2441      O3522   1.264       .  A
C2441      C2829   1.480       .  S
C2442      O3521   1.263       .  A
C2442      C2839   1.489       .  S
O2443      V2451   1.898       .  S
O2443      C2453   1.263       .  A
O2444      V2451   1.899       .  S
O2444      C2454   1.264       .  A
O2445      V2451   1.904       .  S
O2445      C2455   1.265       .  A
O2446      V2451   1.903       .  S
O2446      C2456   1.266       .  A
O2447      V2452   1.898       .  S
O2447      C2456   1.263       .  A
O2448      V2452   1.898       .  S
O2448      C2455   1.264       .  A
O2449      V2452   1.911       .  S
O2449      C2454   1.267       .  A
O2450      V2452   1.913       .  S
O2450      C2453   1.268       .  A
V2451      V2452   2.085       .  T
C2453      C2756   1.490       .  S
C2454      C2746   1.485       .  S
C2455      C2786   1.482       .  S
C2456      C2799   1.480       .  S
O2458      V2465   1.902       .  S
O2458      C3556   1.264   1_545  A
O2459      V2465   1.900       .  S
O2459      C2469   1.266   1_545  A
O2460      C2470   1.265   1_545  A
O2461      C3558   1.263       .  A
O2462      V2466   1.899       .  S
O2462      C3557   1.263       .  A
O2464      V2466   1.906       .  S
O2464      C2467   1.265       .  A
V2465      V3554   2.083   1_545  T
V2466      V3553   2.083       .  T
C2467      C2856   1.493       .  S
C2468      O3546   1.264       .  A
C2468      C3049   1.482       .  S
C2469      O3550   1.263       .  A
C2469      C2736   1.489       .  S
C2470      O3549   1.263       .  A
C2470      C2726   1.483       .  S
O2472      V2479   1.908       .  S
O2472      C2482   1.266       .  A
O2473      V2479   1.908       .  S
O2473      C2483   1.266       .  A
O2474      C2484   1.264       .  A
O2475      C2484   1.264       .  A
O2476      V2480   1.897       .  S
O2476      C2483   1.265       .  A
O2478      V2480   1.900       .  S
O2478      C2481   1.264       .  A
V2479      V2480   2.083       .  T
C2481      C2816   1.495       .  S
C2482      C3009   1.482       .  S
C2483      C2716   1.487       .  S
C2484      C2706   1.482       .  S
O2485      V2493   1.902       .  S
O2485      C3583   1.265       .  A
O2486      V2493   1.905       .  S
O2486      C3584   1.265       .  A
O2487      V2493   1.895       .  S
O2487      C2497   1.265       .  A
O2488      V2493   1.901       .  S
O2488      C2498   1.266       .  A
O2489      V2494   1.898       .  S
O2489      C3586   1.263   1_545  A
O2490      V2494   1.900       .  S
O2490      C3585   1.264   1_545  A
O2491      V2494   1.904       .  S
O2491      C2496   1.267   1_545  A
O2492      V2494   1.903       .  S
O2492      C2495   1.265   1_545  A
V2493      V3582   2.083       .  T
V2494      V3581   2.083   1_545  T
C2495      O3573   1.265       .  A
C2495      C2986   1.480       .  S
C2496      O3574   1.265       .  A
C2496      C2779   1.495       .  S
C2497      O3578   1.264       .  A
C2497      C2729   1.483       .  S
C2498      O3577   1.263       .  A
C2498      C2739   1.488       .  S
O2499      V2507   1.910       .  S
O2499      C2509   1.267       .  A
O2500      V2507   1.909       .  S
O2500      C2510   1.267       .  A
O2501      V2507   1.899       .  S
O2501      C2511   1.263       .  A
O2502      V2507   1.899       .  S
O2502      C2512   1.264       .  A
O2503      V2508   1.905       .  S
O2503      C2512   1.266       .  A
O2504      V2508   1.897       .  S
O2504      C2511   1.265       .  A
O2505      V2508   1.905       .  S
O2505      C2510   1.265       .  A
O2506      V2508   1.908       .  S
O2506      C2509   1.267       .  A
V2507      V2508   2.084       .  T
C2509      C2949   1.493       .  S
C2510      C2759   1.491       .  S
C2511      C2709   1.481       .  S
C2512      C2719   1.487       .  S
O2514      V2521   1.896       .  S
O2514      C3612   1.262       .  A
O2515      V2521   1.896       .  S
O2515      C2525   1.263       .  A
O2516      C2526   1.264       .  A
O2517      C3614   1.265       .  A
O2518      V2522   1.904       .  S
O2518      C3613   1.266       .  A
O2520      V2522   1.915       .  S
O2520      C2523   1.268       .  A
V2521      V3610   2.083       .  T
V2522      V3609   2.083       .  T
C2523      C3139   1.491       .  S
C2524      O3602   1.262       .  A
C2524      C2849   1.500       .  S
C2525      O3606   1.266       .  A
C2525      C2699   1.485       .  S
C2526      O3605   1.265       .  A
C2526      C2686   1.481       .  S
O2528      V2535   1.913       .  S
O2528      C2538   1.268       .  A
O2529      V2535   1.900       .  S
O2529      C2539   1.263       .  A
O2530      C2540   1.262       .  A
O2531      C2540   1.266       .  A
O2532      V2536   1.902       .  S
O2532      C2539   1.266       .  A
O2534      V2536   1.894       .  S
O2534      C2537   1.264       .  A
V2535      V2536   2.084       .  T
C2537      C3109   1.497       .  S
C2538      C2806   1.489       .  S
C2539      C2679   1.480       .  S
C2540      C2669   1.489       .  S
O2541      V2549   1.913       .  S
O2541      C3639   1.268       .  A
O2542      V2549   1.917       .  S
O2542      C3640   1.268       .  A
O2543      V2549   1.900       .  S
O2543      C2553   1.265       .  A
O2544      V2549   1.902       .  S
O2544      C2554   1.264       .  A
O2545      V2550   1.899       .  S
O2545      C3642   1.266       .  A
O2546      V2550   1.902       .  S
O2546      C3641   1.264       .  A
O2547      V2550   1.902       .  S
O2547      C2552   1.266       .  A
O2548      V2550   1.903       .  S
O2548      C2551   1.265       .  A
V2549      V3638   2.084       .  T
V2550      V3637   2.084       .  T
C2551      O3629   1.268       .  A
C2551      C2769   1.495       .  S
C2552      O3630   1.268       .  A
C2552      C3079   1.497       .  S
C2553      O3634   1.264       .  A
C2553      C2689   1.479       .  S
C2554      O3633   1.266       .  A
C2554      C2696   1.486       .  S
O2555      V2563   1.905       .  S
O2555      C2565   1.266       .  A
O2556      V2563   1.904       .  S
O2556      C2566   1.266       .  A
O2557      V2563   1.896       .  S
O2557      C2567   1.262       .  A
O2558      V2563   1.896       .  S
O2558      C2568   1.263       .  A
O2559      V2564   1.903       .  S
O2559      C2568   1.266       .  A
O2560      V2564   1.903       .  S
O2560      C2567   1.267       .  A
O2561      V2564   1.904       .  S
O2561      C2566   1.265       .  A
O2562      V2564   1.904       .  S
O2562      C2565   1.264       .  A
V2563      V2564   2.085       .  T
C2565      C2749   1.485       .  S
C2566      C3069   1.483       .  S
C2567      C2666   1.488       .  S
C2568      C2676   1.478       .  S
O2569      V3665   1.908       .  S
O2570      V2577   1.908       .  S
O2571      V2577   1.904       .  S
O2571      C2581   1.266       .  A
O2572      V3665   1.903       .  S
O2572      C2582   1.264       .  A
O2573      V3666   1.901       .  S
O2574      V2578   1.900       .  S
O2575      V3666   1.897       .  S
O2575      C3668   1.263       .  A
O2576      V2578   1.902       .  S
O2576      C2579   1.265       .  A
V2577      O3657   1.908       .  S
V2577      O3660   1.902       .  S
V2578      O3661   1.901       .  S
V2578      O3663   1.897       .  S
C2579      C3256   1.492       .  S
C2580      O3663   1.263       .  A
C2580      C2939   1.476       .  S
C2581      C2646   1.483       .  S
C2582      C2656   1.480       .  S
O2583      V2591   1.916       .  S
O2584      V2591   1.919       .  S
O2585      V2591   1.897       .  S
O2585      C2595   1.262       .  A
O2586      V2591   1.895       .  S
O2586      C2596   1.263       .  A
O2587      V2592   1.910       .  S
O2588      V2592   1.906       .  S
O2589      V2592   1.896       .  S
O2589      C2594   1.263       .  A
O2590      V2592   1.898       .  S
O2590      C2593   1.264       .  A
C2593      C3216   1.490       .  S
C2594      C2906   1.493       .  S
C2595      C2659   1.477       .  S
C2596      C2649   1.484       .  S
O2597      V3693   1.911       .  S
O2597      C3695   1.266       .  A
O2598      V2605   1.917       .  S
O2598      C2608   1.268       .  A
O2599      V2605   1.906       .  S
O2599      C2609   1.267       .  A
O2600      V3693   1.910   1_545  S
O2600      C2610   1.267       .  A
O2601      V3694   1.893   1_545  S
O2601      C2610   1.262       .  A
O2602      V2606   1.896       .  S
O2602      C2609   1.262       .  A
O2603      V3694   1.897       .  S
O2603      C3696   1.265       .  A
O2604      V2606   1.902       .  S
O2604      C2607   1.265       .  A
V2605      O3685   1.911       .  S
V2605      O3688   1.910       .  S
V2605      V2606   2.086       .  T
V2606      O3689   1.893       .  S
V2606      O3691   1.897       .  S
C2607      O3685   1.266       .  A
C2607      C2899   1.487       .  S
C2608      O3691   1.265       .  A
C2608      C3199   1.491       .  S
C2609      C2626   1.479       .  S
C2610      C2636   1.479       .  S
O2611      V2619   1.919       .  S
O2611      C2621   1.269       .  A
O2612      V2619   1.923       .  S
O2612      C2622   1.270       .  A
O2613      V2619   1.896       .  S
O2613      C2623   1.262       .  A
O2614      V2619   1.895       .  S
O2614      C2624   1.262       .  A
O2615      V2620   1.912       .  S
O2615      C2624   1.268       .  A
O2616      V2620   1.910       .  S
O2616      C2623   1.267       .  A
O2617      V2620   1.895       .  S
O2617      C2622   1.263       .  A
O2618      V2620   1.898       .  S
O2618      C2621   1.263       .  A
V2619      V2620   2.085       .  T
C2621      C2869   1.491       .  S
C2622      C3159   1.490       .  S
C2623      C2639   1.479       .  S
C2624      C2629   1.484       .  S
C2625      C2626   1.399       .  A
C2625      C2630   1.397       .  A
C2625      H2632   1.085       .  S
C2626      C2627   1.413       .  A
C2627      C2628   1.402       .  A
C2627     Br2634   1.919       .  S
C2628      C2629   1.403       .  A
C2628      H2633   1.084       .  S
C2629      C2630   1.413       .  A
C2630     Br2631   1.909       .  S
C2635      C2636   1.403       .  A
C2635      C2640   1.402       .  A
C2635      H2642   1.083       .  S
C2636      C2637   1.412       .  A
C2637      C2638   1.400       .  A
C2637     Br2644   1.921       .  S
C2638      C2639   1.402       .  A
C2638      H2643   1.083       .  S
C2639      C2640   1.412       .  A
C2640     Br2641   1.920       .  S
C2645      C2650   1.399       .  A
C2645      H2652   1.083       .  S
C2646      C2647   1.415       .  A
C2647      C2648   1.403       .  A
C2647     Br2654   1.921       .  S
C2648      C2649   1.404       .  A
C2648      H2653   1.083       .  S
C2650     Br2651   1.920       .  S
C2655      C2660   1.400       .  A
C2655      H2662   1.083       .  S
C2656      C2657   1.412       .  A
C2657      C2658   1.402       .  A
C2657     Br2664   1.921       .  S
C2658      C2659   1.405       .  A
C2658      H2663   1.083       .  S
C2660     Br2661   1.920       .  S
C2665      C2666   1.404       .  A
C2665      C2670   1.398       .  A
C2665      H2672   1.083       .  S
C2666      C2667   1.417       .  A
C2667      C2668   1.400       .  A
C2667     Br2674   1.923       .  S
C2668      C2669   1.405       .  A
C2668      H2673   1.083       .  S
C2669      C2670   1.415       .  A
C2670     Br2671   1.918       .  S
C2675      C2676   1.402       .  A
C2675      C2680   1.399       .  A
C2675      H2682   1.085       .  S
C2676      C2677   1.412       .  A
C2677      C2678   1.398       .  A
C2677     Br2684   1.921       .  S
C2678      C2679   1.403       .  A
C2678      H2683   1.084       .  S
C2679      C2680   1.413       .  A
C2680     Br2681   1.916       .  S
C2685      C3774   1.404       .  A
C2685      C2690   1.398       .  A
C2685      H2692   1.083       .  S
C2686      C3773   1.404       .  A
C2686      C2687   1.412       .  A
C2687      C2688   1.402       .  A
C2687     Br2694   1.919   1_565  S
C2688      C3777   1.405       .  A
C2688      H2693   1.083       .  S
C2689      C3776   1.405       .  A
C2689      C2690   1.410       .  A
C2690     Br2691   1.922       .  S
C2695      C3784   1.404       .  A
C2695      C2700   1.398       .  A
C2695      H2702   1.084       .  S
C2696      C3783   1.404       .  A
C2696      C2697   1.415       .  A
C2697      C2698   1.402       .  A
C2697     Br2704   1.921       .  S
C2698      C3787   1.406       .  A
C2698      H2703   1.084       .  S
C2699      C3786   1.406       .  A
C2699      C2700   1.414       .  A
C2700     Br2701   1.922   1_565  S
C2705      C2706   1.406       .  A
C2705      C2710   1.398       .  A
C2705      H2712   1.083       .  S
C2706      C2707   1.413       .  A
C2707      C2708   1.398       .  A
C2707     Br2714   1.922       .  S
C2708      C2709   1.405       .  A
C2708      H2713   1.083       .  S
C2709      C2710   1.413       .  A
C2710     Br2711   1.922       .  S
C2715      C2716   1.405       .  A
C2715      C2720   1.399       .  A
C2715      H2722   1.084       .  S
C2716      C2717   1.413       .  A
C2717      C2718   1.403       .  A
C2717     Br2724   1.919       .  S
C2718      C2719   1.406       .  A
C2718      H2723   1.084       .  S
C2719      C2720   1.414       .  A
C2720     Br2721   1.922       .  S
C2725      C2726   1.406   1_545  A
C2725      C2730   1.400       .  A
C2725      H2732   1.084       .  S
C2726      C3815   1.414       .  A
C2727      C3814   1.414       .  A
C2727      C2728   1.396       .  A
C2727     Br2734   1.923       .  S
C2728      C2729   1.404       .  A
C2728      H2733   1.084       .  S
C2729      C3818   1.414       .  A
C2730      C3817   1.414   1_545  A
C2730     Br2731   1.921       .  S
C2735      C2736   1.406   1_545  A
C2735      C2740   1.398       .  A
C2735      H2742   1.084       .  S
C2736      C3825   1.416       .  A
C2737      C3824   1.416       .  A
C2737      C2738   1.400       .  A
C2737     Br2744   1.921       .  S
C2738      C2739   1.406       .  A
C2738      H2743   1.084       .  S
C2739      C3828   1.415       .  A
C2740      C3827   1.415   1_545  A
C2740     Br2741   1.922       .  S
C2745      C2746   1.405       .  A
C2745      C2750   1.404   1_554  A
C2745      H2752   1.082       .  S
C2746      C2747   1.413       .  A
C2747      C2748   1.400   1_554  A
C2747     Br2754   1.921       .  S
C2748      C2749   1.404       .  A
C2748      H2753   1.083       .  S
C2749      C2750   1.414       .  A
C2750     Br2751   1.921       .  S
C2755      C2756   1.404       .  A
C2755      C2760   1.403       .  A
C2755      H2762   1.084       .  S
C2756      C2757   1.415       .  A
C2757      C2758   1.403       .  A
C2757     Br2764   1.922       .  S
C2758      C2759   1.405       .  A
C2758      H2763   1.084       .  S
C2759      C2760   1.415       .  A
C2760     Br2761   1.921       .  S
C2765      C2766   1.406       .  A
C2765      C2770   1.402   1_554  A
C2765      H2772   1.078   1_565  S
C2766      C3855   1.415       .  A
C2767      C3854   1.415       .  A
C2767      C2768   1.407   1_554  A
C2767     Br2774   1.920       .  S
C2768      C3857   1.409       .  A
C2768      H2773   1.077       .  S
C2769      C3856   1.409       .  A
C2769      C2770   1.415       .  A
C2770     Br2771   1.922   1_565  S
C2775      C2776   1.408       .  A
C2775      C2780   1.404       .  A
C2775      H2782   1.083       .  S
C2776      C3865   1.417       .  A
C2777      C3864   1.417       .  A
C2777      C2778   1.402       .  A
C2777     Br2784   1.922       .  S
C2778      C3867   1.407       .  A
C2778      H2783   1.083       .  S
C2779      C3866   1.407   1_565  A
C2779      C2780   1.417       .  A
C2780     Br2781   1.922       .  S
C2785      C2786   1.404       .  A
C2785      C2790   1.399       .  A
C2785      H2792   1.083       .  S
C2786      C2787   1.412       .  A
C2787      C2788   1.401       .  A
C2787     Br2794   1.921       .  S
C2788      C2789   1.406       .  A
C2788      H2793   1.083       .  S
C2789      C2790   1.413       .  A
C2790     Br2791   1.921       .  S
C2795      C2796   1.404       .  A
C2795      C2800   1.401       .  A
C2795      H2802   1.081       .  S
C2796      C2797   1.413       .  A
C2797      C2798   1.399       .  A
C2797     Br2804   1.920       .  S
C2798      C2799   1.403       .  A
C2798      H2803   1.084       .  S
C2799      C2800   1.412       .  A
C2800     Br2801   1.922       .  S
C2805      C2806   1.407       .  A
C2805      C2810   1.400   1_556  A
C2805      H2812   1.083       .  S
C2807      C2808   1.401   1_556  A
C2807     Br2814   1.918       .  S
C2808      H2813   1.083       .  S
C2809      C2810   1.413       .  A
C2810     Br2811   1.922       .  S
C2815      C2820   1.405       .  A
C2815      H2822   1.082   1_455  S
C2816      C2817   1.417       .  A
C2817      C2818   1.399       .  A
C2817     Br2824   1.923       .  S
C2818      C2819   1.405       .  A
C2818      H2823   1.082       .  S
C2820     Br2821   1.921   1_455  S
C2825      C3914   1.404       .  A
C2825      C2830   1.397       .  A
C2825      H2832   1.077   1_565  S
C2826      C3913   1.404       .  A
C2826      C2827   1.412       .  A
C2827      C2828   1.400       .  A
C2827     Br2834   1.922       .  S
C2828      C2829   1.407       .  A
C2828      H2833   1.077       .  S
C2829      C3918   1.411       .  A
C2830      C3917   1.411       .  A
C2830     Br2831   1.921   1_565  S
C2835      C3924   1.407       .  A
C2835      C2840   1.401       .  A
C2835      H2842   1.083   1_565  S
C2836      C3923   1.407       .  A
C2836      C2837   1.415       .  A
C2837      C2838   1.397       .  A
C2837     Br2844   1.919       .  S
C2838      C2839   1.406       .  A
C2838      H2843   1.083       .  S
C2839      C3928   1.416       .  A
C2840      C3927   1.416       .  A
C2840     Br2841   1.922   1_565  S
C2845      C2846   1.406       .  A
C2845      C2850   1.400   1_554  A
C2845      H2852   1.083   1_565  S
C2847      C2848   1.408   1_554  A
C2847     Br2854   1.917       .  S
C2848      C2849   1.408       .  A
C2848      H2853   1.083       .  S
C2850     Br2851   1.923   1_565  S
C2855      C2860   1.401       .  A
C2855      H2862   1.083   1_565  S
C2856      C2857   1.416       .  A
C2857      C2858   1.405       .  A
C2857     Br2864   1.921       .  S
C2858      H2863   1.082       .  S
C2859      C2860   1.415       .  A
C2860     Br2861   1.922   1_565  S
C2865      C2866   1.404       .  A
C2865      C2870   1.401       .  A
C2865      H2872   1.083       .  S
C2866      C2867   1.414       .  A
C2867      C2868   1.407       .  A
C2867     Br2874   1.920       .  S
C2868      C2869   1.406       .  A
C2868      H2873   1.083       .  S
C2869      C2870   1.415       .  A
C2870     Br2871   1.922       .  S
C2875      C2876   1.405       .  A
C2875      C2880   1.400       .  A
C2875      H2882   1.084       .  S
C2876      C2877   1.411       .  A
C2877      C2878   1.398       .  A
C2877     Br2884   1.917       .  S
C2878      C2879   1.404       .  A
C2878      H2883   1.084       .  S
C2879      C2880   1.414       .  A
C2880     Br2881   1.921       .  S
C2885      C2886   1.404       .  A
C2885      C2890   1.399       .  A
C2885      H2892   1.083       .  S
C2886      C2887   1.411       .  A
C2887      C2888   1.398       .  A
C2887     Br2894   1.921       .  S
C2888      C2889   1.405       .  A
C2888      H2893   1.084       .  S
C2889      C2890   1.412       .  A
C2890     Br2891   1.921       .  S
C2895      C2896   1.407       .  A
C2895      C2900   1.406       .  A
C2895      H2902   1.083       .  S
C2896      C3985   1.413       .  A
C2897      C3984   1.413   1_545  A
C2897      C2898   1.399       .  A
C2897     Br2904   1.922       .  S
C2898      C3987   1.404   1_545  A
C2898      H2903   1.083       .  S
C2899      C3986   1.404       .  A
C2899      C2900   1.413       .  A
C2900     Br2901   1.919       .  S
C2905      C2906   1.409       .  A
C2905      C2910   1.403       .  A
C2905      H2912   1.082       .  S
C2907      C2908   1.400       .  A
C2907     Br2914   1.907       .  S
C2908      H2913   1.083       .  S
C2909      C2910   1.413       .  A
C2910     Br2911   1.921       .  S
C2915      C2920   1.402       .  A
C2915      H2922   1.084       .  S
C2916      C2917   1.409       .  A
C2917      C2918   1.399       .  A
C2917     Br2924   1.920       .  S
C2918      C2919   1.406       .  A
C2918      H2923   1.084       .  S
C2920     Br2921   1.920       .  S
C2925      C2926   1.404       .  A
C2925      C2930   1.399       .  A
C2925      H2932   1.084       .  S
C2927      C2928   1.401       .  A
C2927     Br2934   1.922       .  S
C2928      H2933   1.084       .  S
C2929      C2930   1.413       .  A
C2930     Br2931   1.920       .  S
C2935      C2940   1.403       .  A
C2935      H2942   1.084       .  S
C2936      C4025   1.408       .  A
C2937      C4024   1.408       .  A
C2937      C2938   1.399       .  A
C2937     Br2944   1.920       .  S
C2938      C4027   1.403       .  A
C2938      H2943   1.084       .  S
C2939      C4026   1.403       .  A
C2940     Br2941   1.919       .  S
C2945      C2946   1.404       .  A
C2945      C2950   1.405       .  A
C2945      H2952   1.083       .  S
C2946      C2947   1.411       .  A
C2947      C2948   1.405       .  A
C2947     Br2954   1.921       .  S
C2948      C2949   1.408       .  A
C2948      H2953   1.083       .  S
C2949      C2950   1.414       .  A
C2950     Br2951   1.919       .  S
C2955      C2956   1.408       .  A
C2955      C2960   1.408       .  A
C2955      H2962   1.084       .  S
C2956      C2957   1.415       .  A
C2957      C2958   1.402       .  A
C2957     Br2964   1.922       .  S
C2958      C2959   1.406       .  A
C2958      H2963   1.084       .  S
C2959      C2960   1.416       .  A
C2960     Br2961   1.919       .  S
C2965      C2966   1.407       .  A
C2965      C2970   1.396       .  A
C2965      H2972   1.083       .  S
C2966      C2967   1.415       .  A
C2967      C2968   1.401       .  A
C2967     Br2974   1.921       .  S
C2968      C2969   1.408       .  A
C2968      H2973   1.083       .  S
C2969      C2970   1.414       .  A
C2970     Br2971   1.922       .  S
C2975      C2976   1.404       .  A
C2975      C2980   1.400       .  A
C2975      H2982   1.084       .  S
C2976      C2977   1.413       .  A
C2977      C2978   1.400       .  A
C2977     Br2984   1.922       .  S
C2978      C2979   1.403       .  A
C2978      H2983   1.084       .  S
C2979      C2980   1.412       .  A
C2980     Br2981   1.921       .  S
C2985      C4074   1.405       .  A
C2985      C2990   1.400       .  A
C2985      H2992   1.084       .  S
C2986      C4073   1.405       .  A
C2986      C2987   1.411   1_565  A
C2987      C2988   1.401       .  A
C2987     Br2994   1.920       .  S
C2988      C2989   1.404   1_545  A
C2988      H2993   1.084       .  S
C2989      C4078   1.410       .  A
C2990      C4077   1.410       .  A
C2990     Br2991   1.921       .  S
C2995      C4084   1.405   1_565  A
C2995      C3000   1.400       .  A
C2995      H3002   1.083       .  S
C2996      C4083   1.405       .  A
C2996      C2997   1.413       .  A
C2997      C2998   1.404       .  A
C2997     Br3004   1.921       .  S
C2998      C4087   1.405       .  A
C2998      H3003   1.082       .  S
C2999      C4086   1.405       .  A
C2999      C3000   1.413   1_545  A
C3000     Br3001   1.922       .  S
C3005      C3006   1.407       .  A
C3005      C3010   1.402       .  A
C3005      H3012   1.084       .  S
C3007      C3008   1.405       .  A
C3007     Br3014   1.921       .  S
C3008      H3013   1.084       .  S
C3009      C3010   1.408       .  A
C3010     Br3011   1.919       .  S
C3015      C3016   1.404       .  A
C3015      C3020   1.401       .  A
C3015      H3022   1.083       .  S
C3017      C3018   1.403       .  A
C3017     Br3024   1.916       .  S
C3018      H3023   1.083       .  S
C3019      C3020   1.412       .  A
C3020     Br3021   1.921       .  S
C3025      C3026   1.405       .  A
C3025      C3030   1.398       .  A
C3025      H3032   1.080       .  S
C3027      C3028   1.398       .  A
C3027     Br3034   1.923       .  S
C3028      H3033   1.082       .  S
C3029      C3030   1.416       .  A
C3030     Br3031   1.924       .  S
C3035      C3036   1.408       .  A
C3035      C3040   1.400       .  A
C3035      H3042   1.083       .  S
C3037      C3038   1.396       .  A
C3037     Br3044   1.922       .  S
C3038      H3043   1.084       .  S
C3039      C3040   1.413       .  A
C3040     Br3041   1.921       .  S
C3045      C4134   1.404   1_545  A
C3045      C3050   1.403       .  A
C3045      H3052   1.083       .  S
C3046      C4133   1.404       .  A
C3047      C3048   1.400       .  A
C3047     Br3054   1.921       .  S
C3048      H3053   1.083       .  S
C3049      C4138   1.413       .  A
C3050      C4137   1.413   1_545  A
C3050     Br3051   1.921       .  S
C3055      C3060   1.399       .  A
C3055      H3062   1.083   1_655  S
C3056      C3057   1.415       .  A
C3057      C3058   1.402       .  A
C3057     Br3064   1.921       .  S
C3058      C3059   1.408       .  A
C3058      H3063   1.083       .  S
C3060     Br3061   1.923   1_655  S
C3065      C3066   1.406       .  A
C3065      C3070   1.405       .  A
C3065      H3072   1.082       .  S
C3066      C3067   1.413       .  A
C3067      C3068   1.400       .  A
C3067     Br3074   1.921       .  S
C3068      C3069   1.403       .  A
C3068      H3073   1.083       .  S
C3069      C3070   1.413       .  A
C3070     Br3071   1.921       .  S
C3075      C4164   1.410       .  A
C3075      C3080   1.410       .  A
C3075      H3082   1.083       .  S
C3076      C4163   1.410       .  A
C3076      C3077   1.418       .  A
C3077      C3078   1.401       .  A
C3077     Br3084   1.923   1_565  S
C3078      C3079   1.405       .  A
C3078      H3083   1.084   1_565  S
C3079      C4168   1.416       .  A
C3080      C4167   1.416       .  A
C3080     Br3081   1.920       .  S
C3085      C3086   1.405       .  A
C3085      C3090   1.401       .  A
C3085      H3092   1.084       .  S
C3086      C3087   1.413       .  A
C3087      C3088   1.395       .  A
C3087     Br3094   1.921       .  S
C3088      C3089   1.402       .  A
C3088      H3093   1.084       .  S
C3089      C3090   1.411       .  A
C3090     Br3091   1.919       .  S
C3095      C3096   1.407       .  A
C3095      C3100   1.402       .  A
C3095      H3102   1.084       .  S
C3096      C3097   1.414       .  A
C3097      C3098   1.398       .  A
C3097     Br3104   1.923       .  S
C3098      C3099   1.406       .  A
C3098      H3103   1.084       .  S
C3099      C3100   1.417       .  A
C3100     Br3101   1.923       .  S
C3105      C3106   1.409       .  A
C3105      C3110   1.407       .  A
C3105      H3112   1.083       .  S
C3107      C3108   1.399       .  A
C3107     Br3114   1.922       .  S
C3108      H3113   1.084       .  S
C3109      C3110   1.415       .  A
C3110     Br3111   1.919       .  S
C3115      C4204   1.404       .  A
C3115      C3120   1.401       .  A
C3115      H3122   1.083   1_565  S
C3116      C4203   1.404       .  A
C3116      C3117   1.415       .  A
C3117      C3118   1.400       .  A
C3117     Br3124   1.921       .  S
C3118      C4207   1.404       .  A
C3118      H3123   1.083       .  S
C3119      C4206   1.404       .  A
C3119      C3120   1.414       .  A
C3120     Br3121   1.921   1_565  S
C3125      C4214   1.402       .  A
C3125      C3130   1.399       .  A
C3125      H3132   1.085       .  S
C3126      C4213   1.402       .  A
C3126      C3127   1.412       .  A
C3127      C3128   1.402       .  A
C3127     Br3134   1.920       .  S
C3128      C4217   1.404       .  A
C3128      H3133   1.084       .  S
C3129      C4216   1.404       .  A
C3129      C3130   1.413       .  A
C3130     Br3131   1.921   1_565  S
C3135      C4224   1.405       .  A
C3135      C3140   1.402       .  A
C3135      H3142   1.083       .  S
C3136      C4223   1.405       .  A
C3137      C3138   1.406       .  A
C3137     Br3144   1.920       .  S
C3138      H3143   1.083       .  S
C3139      C4228   1.415       .  A
C3140      C4227   1.415       .  A
C3140     Br3141   1.922   1_565  S
C3145      C3146   1.404       .  A
C3145      C3150   1.402       .  A
C3145      H3152   1.084       .  S
C3146      C3147   1.415       .  A
C3147      C3148   1.405       .  A
C3147     Br3154   1.920       .  S
C3148      C3149   1.404       .  A
C3148      H3153   1.084       .  S
C3149      C3150   1.413       .  A
C3150     Br3151   1.921       .  S
C3155      C3156   1.408       .  A
C3155      C3160   1.408       .  A
C3155      H3162   1.083       .  S
C3156      C3157   1.411       .  A
C3157      C3158   1.401       .  A
C3157     Br3164   1.921       .  S
C3158      C3159   1.406       .  A
C3158      H3163   1.084       .  S
C3159      C3160   1.412       .  A
C3160     Br3161   1.918       .  S
C3165      C3166   1.406       .  A
C3165      C3170   1.397       .  A
C3165      H3172   1.084       .  S
C3166      C3167   1.414       .  A
C3167      C3168   1.394       .  A
C3167     Br3174   1.923       .  S
C3168      C3169   1.405       .  A
C3168      H3173   1.084       .  S
C3169      C3170   1.415       .  A
C3170     Br3171   1.924       .  S
C3175      C3176   1.406       .  A
C3175      C3180   1.399       .  A
C3175      H3182   1.084       .  S
C3176      C3177   1.414       .  A
C3177      C3178   1.396       .  A
C3177     Br3184   1.923       .  S
C3178      C3179   1.406       .  A
C3178      H3183   1.084       .  S
C3179      C3180   1.416       .  A
C3180     Br3181   1.923       .  S
C3185      C4274   1.404       .  A
C3185      C3190   1.402       .  A
C3185      H3192   1.083       .  S
C3186      C4273   1.404       .  A
C3186      C3187   1.416       .  A
C3187      C3188   1.408   1_565  A
C3187     Br3194   1.920   1_565  S
C3188      C3189   1.406   1_545  A
C3188      H3193   1.083       .  S
C3189      C3304   1.488       .  S
C3189      C4278   1.411       .  A
C3190      C4277   1.411       .  A
C3190     Br3191   1.920       .  S
C3195      C3196   1.410       .  A
C3195      C3200   1.410       .  A
C3195      H3202   1.083       .  S
C3196      C4285   1.412       .  A
C3197      C4284   1.412   1_545  A
C3197      C3198   1.398       .  A
C3197     Br3204   1.921       .  S
C3198      C4287   1.404   1_545  A
C3198      H3203   1.083       .  S
C3199      C4286   1.404       .  A
C3199      C3200   1.414       .  A
C3200     Br3201   1.920       .  S
C3205      C3210   1.403       .  A
C3205      H3212   1.084       .  S
C3206      C3207   1.413       .  A
C3207      C3208   1.405       .  A
C3207     Br3214   1.919       .  S
C3208      C3209   1.405       .  A
C3208      H3213   1.084       .  S
C3210     Br3211   1.920       .  S
C3215      C3216   1.404       .  A
C3215      C3220   1.400       .  A
C3215      H3222   1.084       .  S
C3217      C3218   1.408       .  A
C3217     Br3224   1.919       .  S
C3218      H3223   1.083       .  S
C3219      C3220   1.415       .  A
C3220     Br3221   1.923       .  S
C3225      C3226   1.403       .  A
C3225      C3230   1.396       .  A
C3225      H3232   1.084       .  S
C3227      C3228   1.399       .  A
C3227     Br3234   1.922       .  S
C3228      C3229   1.405       .  A
C3228      H3233   1.084       .  S
C3230     Br3231   1.922       .  S
C3235      C3240   1.400       .  A
C3235      H3242   1.083       .  S
C3236      C3237   1.414       .  A
C3237      C3238   1.400       .  A
C3237     Br3244   1.921       .  S
C3238      H3243   1.084       .  S
C3239      C3240   1.414       .  A
C3240     Br3241   1.922       .  S
C3245      C4334   1.406       .  A
C3245      C3250   1.405       .  A
C3245      H3252   1.083       .  S
C3246      C4333   1.406       .  A
C3247      C3248   1.405   1_545  A
C3247     Br3254   1.919       .  S
C3248      C4337   1.405       .  A
C3248      H3253   1.083   1_565  S
C3249      C4336   1.405       .  A
C3250     Br3251   1.920       .  S
C3255      C3260   1.405       .  A
C3255      H3262   1.083       .  S
C3256      C3257   1.414       .  A
C3257      C3258   1.400       .  A
C3257     Br3264   1.922       .  S
C3258      H3263   1.083       .  S
C3259      C3260   1.416       .  A
C3260     Br3261   1.921       .  S
O3266      V3273   1.902       .  S
O3267      V3273   1.901       .  S
O3267      C3277   1.264       .  A
O3268      C3278   1.265       .  A
O3270      V3274   1.902       .  S
O3272      V3274   1.911       .  S
O3272      C3275   1.267       .  A
C3275      C4334   1.488       .  S
C3276      C4347   1.492       .  S
C3277      C4324   1.487       .  S
C3278      C4314   1.478       .  S
O3279      V3287   1.912       .  S
O3280      V3287   1.915       .  S
O3281      V3287   1.901       .  S
O3281      C3291   1.264       .  A
O3282      V3287   1.897       .  S
O3282      C3292   1.264       .  A
O3283      V3288   1.897       .  S
O3284      V3288   1.899       .  S
O3285      V3288   1.901       .  S
O3285      C3290   1.265       .  A
O3286      V3288   1.903       .  S
O3286      C3289   1.264       .  A
C3289      C4297   1.485       .  S
C3290      C4307   1.492       .  S
C3291      C4327   1.486       .  S
C3292      C4317   1.478       .  S
O3294      V3301   1.908       .  S
O3294      C3304   1.267       .  A
O3295      V3301   1.893       .  S
O3295      C3305   1.264       .  A
O3296      C3306   1.263       .  A
O3297      C3306   1.264       .  A
O3298      V3302   1.894       .  S
O3298      C3305   1.262       .  A
O3300      V3302   1.905       .  S
O3300      C3303   1.266       .  A
V3301      V3302   2.084       .  T
C3303      C4284   1.491       .  S
C3305      C4254   1.482       .  S
C3306      C4264   1.484       .  S
O3307      V3315   1.907       .  S
O3307      C3317   1.265       .  A
O3308      V3315   1.905       .  S
O3308      C3318   1.266       .  A
O3309      V3315   1.898       .  S
O3309      C3319   1.263       .  A
O3310      V3315   1.892       .  S
O3310      C3320   1.265       .  A
O3311      V3316   1.894       .  S
O3311      C3320   1.262       .  A
O3312      V3316   1.895       .  S
O3312      C3319   1.265       .  A
O3313      V3316   1.912       .  S
O3313      C3318   1.266       .  A
O3314      V3316   1.908       .  S
O3314      C3317   1.267       .  A
V3315      V3316   2.083       .  T
C3317      C4234   1.488       .  S
C3318      C4244   1.489       .  S
C3319      C4267   1.486       .  S
C3320      C4257   1.482       .  S
O3322      V3329   1.904       .  S
O3323      V3329   1.895       .  S
O3323      C3333   1.263       .  A
O3324      C3334   1.264       .  A
O3326      V3330   1.910       .  S
O3328      V3330   1.911       .  S
O3328      C3331   1.267       .  A
C3331      C4337   1.488       .  S
C3332      C4224   1.491       .  S
C3333      C4217   1.480       .  S
C3334      C4207   1.484       .  S
O3336      V3343   1.910       .  S
O3336      C3346   1.267       .  A
O3337      V3343   1.902       .  S
O3337      C3347   1.264       .  A
O3338      C3348   1.264       .  A
O3339      C3348   1.264       .  A
O3340      V3344   1.899       .  S
O3340      C3347   1.266       .  A
O3342      V3344   1.907       .  S
O3342      C3345   1.266       .  A
V3343      V3344   2.084       .  T
C3345      C4294   1.489       .  S
C3346      C4194   1.496       .  S
C3347      C4187   1.490       .  S
C3348      C4177   1.478       .  S
O3349      V3357   1.920       .  S
O3350      V3357   1.913       .  S
O3351      V3357   1.895       .  S
O3351      C3361   1.262       .  A
O3352      V3357   1.897       .  S
O3352      C3362   1.263       .  A
O3353      V3358   1.906       .  S
O3354      V3358   1.908       .  S
O3355      V3358   1.907       .  S
O3355      C3360   1.265       .  A
O3356      V3358   1.902       .  S
O3356      C3359   1.264       .  A
C3359      C4164   1.501       .  S
C3360      C4274   1.492       .  S
C3361      C4204   1.485       .  S
C3362      C4214   1.478       .  S
O3363      V3371   1.896       .  S
O3363      C3373   1.263       .  A
O3364      V3371   1.898       .  S
O3364      C3374   1.263       .  A
O3365      V3371   1.902       .  S
O3365      C3375   1.265       .  A
O3366      V3371   1.899       .  S
O3366      C3376   1.264       .  A
O3367      V3372   1.900       .  S
O3367      C3376   1.265       .  A
O3368      V3372   1.896       .  S
O3368      C3375   1.263       .  A
O3369      V3372   1.914       .  S
O3369      C3374   1.268       .  A
O3370      V3372   1.916       .  S
O3370      C3373   1.268       .  A
V3371      V3372   2.084       .  T
C3373      C4154   1.486       .  S
C3374      C4237   1.485       .  S
C3375      C4174   1.480       .  S
C3376      C4184   1.488       .  S
O3378      V3385   1.905       .  S
O3379      V3385   1.887   1_565  S
O3379      C3389   1.260       .  A
O3380      C3390   1.263       .  A
O3382      V3386   1.904   1_565  S
O3384      V3386   1.897       .  S
O3384      C3387   1.265       .  A
C3387      C4144   1.492       .  S
C3388      C4134   1.477   1_545  S
C3389      C4117   1.485       .  S
C3390      C4124   1.485       .  S
O3391      V3399   1.908       .  S
O3392      V3399   1.912       .  S
O3393      V3399   1.907       .  S
O3393      C3403   1.266       .  A
O3394      V3399   1.902       .  S
O3394      C3404   1.267       .  A
O3395      V3400   1.893       .  S
O3396      V3400   1.889       .  S
O3397      V3400   1.902       .  S
O3397      C3402   1.265       .  A
O3398      V3400   1.899       .  S
O3398      C3401   1.264       .  A
C3401      C4107   1.481       .  S
C3402      C4094   1.490       .  S
C3403      C4127   1.485       .  S
C3404      C4114   1.487       .  S
O3406      V3413   1.906       .  S
O3406      C3416   1.266       .  A
O3407      V3413   1.894       .  S
O3407      C3417   1.262       .  A
O3408      C3418   1.264       .  A
O3409      C3418   1.266       .  A
O3410      V3414   1.906       .  S
O3410      C3417   1.267       .  A
O3412      V3414   1.899       .  S
O3412      C3415   1.264       .  A
V3413      V3414   2.085       .  T
C3415      C4087   1.485       .  S
C3416      C4077   1.478       .  S
C3417      C4064   1.480       .  S
C3418      C4054   1.489       .  S
O3419      V3427   1.908       .  S
O3419      C3429   1.266       .  A
O3420      V3427   1.907       .  S
O3420      C3430   1.266       .  A
O3421      V3427   1.898       .  S
O3421      C3431   1.264       .  A
O3422      V3427   1.896       .  S
O3422      C3432   1.263       .  A
O3423      V3428   1.904       .  S
O3423      C3432   1.266       .  A
O3424      V3428   1.895       .  S
O3424      C3431   1.263       .  A
O3425      V3428   1.913       .  S
O3425      C3430   1.267       .  A
O3426      V3428   1.911       .  S
O3426      C3429   1.267       .  A
V3427      V3428   2.084       .  T
C3429      C4034   1.486       .  S
C3430      C4044   1.496       .  S
C3431      C4057   1.488       .  S
C3432      C4067   1.479       .  S
O3434      V3441   1.904       .  S
O3435      V3441   1.909       .  S
O3435      C3445   1.267       .  A
O3436      C3446   1.267       .  A
O3438      V3442   1.895       .  S
O3440      V3442   1.902       .  S
O3440      C3443   1.266       .  A
C3443      C4024   1.477       .  S
C3444      C4147   1.493       .  S
C3445      C4004   1.480       .  S
C3446      C4014   1.484       .  S
O3447      V3455   1.903       .  S
O3448      V3455   1.908       .  S
O3449      V3455   1.897       .  S
O3449      C3459   1.263       .  A
O3450      V3455   1.893       .  S
O3450      C3460   1.263       .  A
O3451      V3456   1.910       .  S
O3452      V3456   1.906       .  S
O3453      V3456   1.902       .  S
O3453      C3458   1.265       .  A
O3454      V3456   1.902       .  S
O3454      C3457   1.264       .  A
C3457      C3997   1.486       .  S
C3458      C4104   1.484       .  S
C3459      C4017   1.483       .  S
C3460      C4007   1.481       .  S
O3462      V3469   1.912       .  S
O3462      C3472   1.267       .  A
O3463      V3469   1.899       .  S
O3463      C3473   1.265       .  A
O3464      C3474   1.264       .  A
O3465      C3474   1.265       .  A
O3466      V3470   1.900       .  S
O3466      C3473   1.264       .  A
O3468      V3470   1.899       .  S
O3468      C3471   1.265       .  A
V3469      V3470   2.084       .  T
C3471      C4084   1.487   1_565  S
C3472      C3984   1.487       .  S
C3473      C3967   1.483       .  S
C3474      C3974   1.479       .  S
O3475      V3483   1.904       .  S
O3475      C3485   1.266       .  A
O3476      V3483   1.905       .  S
O3476      C3486   1.267       .  A
O3477      V3483   1.899       .  S
O3477      C3487   1.264       .  A
O3478      V3483   1.899       .  S
O3478      C3488   1.265       .  A
O3479      V3484   1.901       .  S
O3479      C3488   1.265       .  A
O3480      V3484   1.898       .  S
O3480      C3487   1.264       .  A
O3481      V3484   1.915       .  S
O3481      C3486   1.267       .  A
O3482      V3484   1.912       .  S
O3482      C3485   1.267       .  A
V3483      V3484   2.085       .  T
C3485      C3954   1.491       .  S
C3486      C4047   1.497       .  S
C3487      C3977   1.480       .  S
C3488      C3964   1.482       .  S
O3490      V3497   1.913       .  S
O3491      V3497   1.898       .  S
O3491      C3501   1.263       .  A
O3492      C3502   1.263       .  A
O3494      V3498   1.896       .  S
O3496      V3498   1.900       .  S
O3496      C3499   1.266       .  A
C3499      C3934   1.498       .  S
C3500      C3947   1.494       .  S
C3501      C3914   1.478       .  S
C3502      C3924   1.490       .  S
O3504      V3511   1.906       .  S
O3504      C3514   1.265       .  A
O3505      V3511   1.904       .  S
O3505      C3515   1.266       .  A
O3506      C3516   1.264       .  A
O3507      C3516   1.265       .  A
O3508      V3512   1.900       .  S
O3508      C3515   1.264       .  A
O3510      V3512   1.903       .  S
O3510      C3513   1.265       .  A
V3511      V3512   2.084       .  T
C3513      C3897   1.488       .  S
C3514      C3907   1.494       .  S
C3515      C3884   1.483       .  S
C3516      C3877   1.483       .  S
O3517      V3525   1.909       .  S
O3518      V3525   1.910       .  S
O3519      V3525   1.898       .  S
O3519      C3529   1.264       .  A
O3520      V3525   1.896       .  S
O3520      C3530   1.265       .  A
O3521      V3526   1.900       .  S
O3522      V3526   1.899       .  S
O3523      V3526   1.902       .  S
O3523      C3528   1.266       .  A
O3524      V3526   1.904       .  S
O3524      C3527   1.264       .  A
C3527      C3864   1.497       .  S
C3528      C3854   1.493       .  S
C3529      C3917   1.480       .  S
C3530      C3927   1.489       .  S
O3531      V3539   1.898       .  S
O3531      C3541   1.263       .  A
O3532      V3539   1.899       .  S
O3532      C3542   1.264       .  A
O3533      V3539   1.904       .  S
O3533      C3543   1.265       .  A
O3534      V3539   1.903       .  S
O3534      C3544   1.266       .  A
O3535      V3540   1.898       .  S
O3535      C3544   1.263       .  A
O3536      V3540   1.897       .  S
O3536      C3543   1.264       .  A
O3537      V3540   1.911       .  S
O3537      C3542   1.267       .  A
O3538      V3540   1.913       .  S
O3538      C3541   1.268       .  A
V3539      V3540   2.085       .  T
C3541      C3844   1.490       .  S
C3542      C3834   1.485       .  S
C3543      C3874   1.482       .  S
C3544      C3887   1.480       .  S
O3546      V3553   1.902       .  S
O3547      V3553   1.900       .  S
O3547      C3557   1.266       .  A
O3548      C3558   1.265       .  A
O3550      V3554   1.899       .  S
O3552      V3554   1.906       .  S
O3552      C3555   1.265       .  A
C3555      C3944   1.493       .  S
C3556      C4137   1.482       .  S
C3557      C3824   1.489       .  S
C3558      C3814   1.483       .  S
O3560      V3567   1.909       .  S
O3560      C3570   1.266       .  A
O3561      V3567   1.908       .  S
O3561      C3571   1.266       .  A
O3562      C3572   1.264       .  A
O3563      C3572   1.264       .  A
O3564      V3568   1.897       .  S
O3564      C3571   1.265       .  A
O3566      V3568   1.900       .  S
O3566      C3569   1.264       .  A
V3567      V3568   2.083       .  T
C3569      C3904   1.495       .  S
C3570      C4097   1.482       .  S
C3571      C3804   1.487       .  S
C3572      C3794   1.482       .  S
O3573      V3581   1.902       .  S
O3574      V3581   1.905       .  S
O3575      V3581   1.895       .  S
O3575      C3585   1.265       .  A
O3576      V3581   1.901       .  S
O3576      C3586   1.266       .  A
O3577      V3582   1.898       .  S
O3578      V3582   1.900       .  S
O3579      V3582   1.904       .  S
O3579      C3584   1.267       .  A
O3580      V3582   1.903       .  S
O3580      C3583   1.265       .  A
C3583      C4074   1.480       .  S
C3584      C3867   1.495       .  S
C3585      C3817   1.483       .  S
C3586      C3827   1.488       .  S
O3587      V3595   1.910       .  S
O3587      C3597   1.267       .  A
O3588      V3595   1.909       .  S
O3588      C3598   1.267       .  A
O3589      V3595   1.899       .  S
O3589      C3599   1.263       .  A
O3590      V3595   1.899       .  S
O3590      C3600   1.264       .  A
O3591      V3596   1.905       .  S
O3591      C3600   1.266       .  A
O3592      V3596   1.897       .  S
O3592      C3599   1.265       .  A
O3593      V3596   1.905       .  S
O3593      C3598   1.265       .  A
O3594      V3596   1.908       .  S
O3594      C3597   1.267       .  A
V3595      V3596   2.084       .  T
C3597      C4037   1.493       .  S
C3598      C3847   1.491       .  S
C3599      C3797   1.481       .  S
C3600      C3807   1.487       .  S
O3602      V3609   1.896       .  S
O3603      V3609   1.896       .  S
O3603      C3613   1.263       .  A
O3604      C3614   1.264       .  A
O3606      V3610   1.904       .  S
O3608      V3610   1.915       .  S
O3608      C3611   1.268       .  A
C3611      C4227   1.491       .  S
C3612      C3937   1.500       .  S
C3613      C3787   1.485       .  S
C3614      C3774   1.481       .  S
O3616      V3623   1.914       .  S
O3616      C3626   1.268       .  A
O3617      V3623   1.900       .  S
O3617      C3627   1.263       .  A
O3618      C3628   1.263       .  A
O3619      C3628   1.266       .  A
O3620      V3624   1.903       .  S
O3620      C3627   1.266       .  A
O3622      V3624   1.893       .  S
O3622      C3625   1.264       .  A
V3623      V3624   2.084       .  T
C3625      C4197   1.497       .  S
C3626      C3894   1.490       .  S
C3627      C3767   1.480       .  S
C3628      C3757   1.489       .  S
O3629      V3637   1.913       .  S
O3630      V3637   1.917       .  S
O3631      V3637   1.900       .  S
O3631      C3641   1.265       .  A
O3632      V3637   1.902       .  S
O3632      C3642   1.264       .  A
O3633      V3638   1.899       .  S
O3634      V3638   1.902       .  S
O3635      V3638   1.903       .  S
O3635      C3640   1.266       .  A
O3636      V3638   1.903       .  S
O3636      C3639   1.265       .  A
C3639      C3857   1.495       .  S
C3640      C4167   1.497       .  S
C3641      C3777   1.479       .  S
C3642      C3784   1.486       .  S
O3643      V3651   1.905       .  S
O3643      C3653   1.266       .  A
O3644      V3651   1.904       .  S
O3644      C3654   1.266       .  A
O3645      V3651   1.896       .  S
O3645      C3655   1.262       .  A
O3646      V3651   1.895       .  S
O3646      C3656   1.263       .  A
O3647      V3652   1.903       .  S
O3647      C3656   1.266       .  A
O3648      V3652   1.903       .  S
O3648      C3655   1.267       .  A
O3649      V3652   1.904       .  S
O3649      C3654   1.265       .  A
O3650      V3652   1.904       .  S
O3650      C3653   1.264       .  A
V3651      V3652   2.085       .  T
C3653      C3837   1.485       .  S
C3654      C4157   1.483       .  S
C3655      C3754   1.489       .  S
C3656      C3764   1.478       .  S
O3658      V3665   1.908       .  S
O3659      V3665   1.904   1_565  S
O3659      C3669   1.266       .  A
O3660      C3670   1.264       .  A
O3662      V3666   1.900   1_565  S
O3664      V3666   1.902       .  S
O3664      C3667   1.265       .  A
C3667      C4344   1.492       .  S
C3668      C4027   1.476   1_545  S
C3669      C3734   1.483       .  S
C3670      C3744   1.480       .  S
O3671      V3679   1.916       .  S
O3672      V3679   1.919       .  S
O3673      V3679   1.897       .  S
O3673      C3683   1.262       .  A
O3674      V3679   1.895       .  S
O3674      C3684   1.263       .  A
O3675      V3680   1.910       .  S
O3676      V3680   1.906       .  S
O3677      V3680   1.896       .  S
O3677      C3682   1.263       .  A
O3678      V3680   1.898       .  S
O3678      C3681   1.264       .  A
C3681      C4304   1.490       .  S
C3682      C3994   1.493       .  S
C3683      C3747   1.477       .  S
C3684      C3737   1.484       .  S
O3686      V3693   1.917       .  S
O3686      C3696   1.268       .  A
O3687      V3693   1.906       .  S
O3687      C3697   1.267       .  A
O3688      C3698   1.267       .  A
O3689      C3698   1.262       .  A
O3690      V3694   1.896       .  S
O3690      C3697   1.262       .  A
O3692      V3694   1.902       .  S
O3692      C3695   1.266       .  A
V3693      V3694   2.086       .  T
C3695      C3987   1.487       .  S
C3696      C4287   1.491       .  S
C3697      C3714   1.479       .  S
C3698      C3724   1.479       .  S
O3699      V3707   1.919       .  S
O3699      C3709   1.269       .  A
O3700      V3707   1.923       .  S
O3700      C3710   1.270       .  A
O3701      V3707   1.896       .  S
O3701      C3711   1.262       .  A
O3702      V3707   1.895       .  S
O3702      C3712   1.262       .  A
O3703      V3708   1.912       .  S
O3703      C3712   1.268       .  A
O3704      V3708   1.910       .  S
O3704      C3711   1.267       .  A
O3705      V3708   1.894       .  S
O3705      C3710   1.263       .  A
O3706      V3708   1.898       .  S
O3706      C3709   1.263       .  A
V3707      V3708   2.085       .  T
C3709      C3957   1.491       .  S
C3710      C4247   1.490       .  S
C3711      C3727   1.479       .  S
C3712      C3717   1.483       .  S
C3713      C3714   1.399       .  A
C3713      C3718   1.397       .  A
C3713      H3720   1.085       .  S
C3714      C3715   1.413       .  A
C3715      C3716   1.402       .  A
C3715     Br3722   1.919       .  S
C3716      C3717   1.403       .  A
C3716      H3721   1.084       .  S
C3717      C3718   1.413       .  A
C3718     Br3719   1.909       .  S
C3723      C3724   1.403       .  A
C3723      C3728   1.402       .  A
C3723      H3730   1.083       .  S
C3724      C3725   1.412       .  A
C3725      C3726   1.400       .  A
C3725     Br3732   1.921       .  S
C3726      C3727   1.402       .  A
C3726      H3731   1.083       .  S
C3727      C3728   1.412       .  A
C3728     Br3729   1.920       .  S
C3733      C3738   1.399       .  A
C3733      H3740   1.083       .  S
C3734      C3735   1.415       .  A
C3735      C3736   1.403       .  A
C3735     Br3742   1.921       .  S
C3736      C3737   1.404       .  A
C3736      H3741   1.083       .  S
C3738     Br3739   1.920       .  S
C3743      C3748   1.400       .  A
C3743      H3750   1.083       .  S
C3744      C3745   1.412       .  A
C3745      C3746   1.402       .  A
C3745     Br3752   1.921       .  S
C3746      C3747   1.405       .  A
C3746      H3751   1.083       .  S
C3748     Br3749   1.920       .  S
C3753      C3754   1.405       .  A
C3753      C3758   1.398       .  A
C3753      H3760   1.083       .  S
C3754      C3755   1.417       .  A
C3755      C3756   1.400       .  A
C3755     Br3762   1.923       .  S
C3756      C3757   1.405       .  A
C3756      H3761   1.083       .  S
C3757      C3758   1.415       .  A
C3758     Br3759   1.918       .  S
C3763      C3764   1.402       .  A
C3763      C3768   1.399       .  A
C3763      H3770   1.085       .  S
C3764      C3765   1.412       .  A
C3765      C3766   1.399       .  A
C3765     Br3772   1.921       .  S
C3766      C3767   1.403       .  A
C3766      H3771   1.084       .  S
C3767      C3768   1.413       .  A
C3768     Br3769   1.916       .  S
C3773      C3778   1.398       .  A
C3773      H3780   1.083       .  S
C3774      C3775   1.412       .  A
C3775      C3776   1.402       .  A
C3775     Br3782   1.919       .  S
C3776      H3781   1.083       .  S
C3777      C3778   1.410       .  A
C3778     Br3779   1.922       .  S
C3783      C3788   1.398       .  A
C3783      H3790   1.084       .  S
C3784      C3785   1.415       .  A
C3785      C3786   1.402       .  A
C3785     Br3792   1.921       .  S
C3786      H3791   1.084       .  S
C3787      C3788   1.414       .  A
C3788     Br3789   1.922       .  S
C3793      C3794   1.406       .  A
C3793      C3798   1.398       .  A
C3793      H3800   1.083       .  S
C3794      C3795   1.413       .  A
C3795      C3796   1.398       .  A
C3795     Br3802   1.922       .  S
C3796      C3797   1.405       .  A
C3796      H3801   1.083       .  S
C3797      C3798   1.413       .  A
C3798     Br3799   1.922       .  S
C3803      C3804   1.405       .  A
C3803      C3808   1.399       .  A
C3803      H3810   1.084       .  S
C3804      C3805   1.413       .  A
C3805      C3806   1.403       .  A
C3805     Br3812   1.919       .  S
C3806      C3807   1.406       .  A
C3806      H3811   1.084       .  S
C3807      C3808   1.414       .  A
C3808     Br3809   1.922       .  S
C3813      C3814   1.406       .  A
C3813      C3818   1.400       .  A
C3813      H3820   1.084       .  S
C3815      C3816   1.396       .  A
C3815     Br3822   1.923       .  S
C3816      C3817   1.404       .  A
C3816      H3821   1.084       .  S
C3818     Br3819   1.921       .  S
C3823      C3824   1.406       .  A
C3823      C3828   1.398       .  A
C3823      H3830   1.084       .  S
C3825      C3826   1.400       .  A
C3825     Br3832   1.921       .  S
C3826      C3827   1.406       .  A
C3826      H3831   1.084       .  S
C3828     Br3829   1.922       .  S
C3833      C3834   1.405       .  A
C3833      C3838   1.404   1_554  A
C3833      H3840   1.082       .  S
C3834      C3835   1.413       .  A
C3835      C3836   1.400   1_554  A
C3835     Br3842   1.921       .  S
C3836      C3837   1.404       .  A
C3836      H3841   1.083       .  S
C3837      C3838   1.414       .  A
C3838     Br3839   1.921       .  S
C3843      C3844   1.404       .  A
C3843      C3848   1.403       .  A
C3843      H3850   1.084       .  S
C3844      C3845   1.415       .  A
C3845      C3846   1.403       .  A
C3845     Br3852   1.922       .  S
C3846      C3847   1.405       .  A
C3846      H3851   1.084       .  S
C3847      C3848   1.415       .  A
C3848     Br3849   1.921       .  S
C3853      C3854   1.406       .  A
C3853      C3858   1.402   1_554  A
C3853      H3860   1.078       .  S
C3855      C3856   1.407   1_554  A
C3855     Br3862   1.920       .  S
C3856      H3861   1.077       .  S
C3857      C3858   1.415       .  A
C3858     Br3859   1.922       .  S
C3863      C3864   1.408       .  A
C3863      C3868   1.404       .  A
C3863      H3870   1.083       .  S
C3865      C3866   1.402   1_565  A
C3865     Br3872   1.922   1_565  S
C3866      H3871   1.083       .  S
C3867      C3868   1.417       .  A
C3868     Br3869   1.922       .  S
C3873      C3874   1.404       .  A
C3873      C3878   1.399       .  A
C3873      H3880   1.083       .  S
C3874      C3875   1.412       .  A
C3875      C3876   1.401       .  A
C3875     Br3882   1.921       .  S
C3876      C3877   1.406       .  A
C3876      H3881   1.083       .  S
C3877      C3878   1.413       .  A
C3878     Br3879   1.921       .  S
C3883      C3884   1.404       .  A
C3883      C3888   1.401       .  A
C3883      H3890   1.081       .  S
C3884      C3885   1.413       .  A
C3885      C3886   1.399       .  A
C3885     Br3892   1.920       .  S
C3886      C3887   1.403       .  A
C3886      H3891   1.084       .  S
C3887      C3888   1.412       .  A
C3888     Br3889   1.922       .  S
C3893      C3894   1.407       .  A
C3893      C3898   1.400   1_556  A
C3893      H3900   1.083       .  S
C3895      C3896   1.401   1_556  A
C3895     Br3902   1.918       .  S
C3896      H3901   1.083       .  S
C3897      C3898   1.413       .  A
C3898     Br3899   1.922       .  S
C3903      C3908   1.405       .  A
C3903      H3910   1.082   1_455  S
C3904      C3905   1.417       .  A
C3905      C3906   1.399       .  A
C3905     Br3912   1.923       .  S
C3906      C3907   1.405       .  A
C3906      H3911   1.082       .  S
C3908     Br3909   1.921   1_455  S
C3913      C3918   1.397       .  A
C3913      H3920   1.077       .  S
C3914      C3915   1.412       .  A
C3915      C3916   1.400       .  A
C3915     Br3922   1.922       .  S
C3916      C3917   1.407       .  A
C3916      H3921   1.077       .  S
C3918     Br3919   1.921       .  S
C3923      C3928   1.401       .  A
C3923      H3930   1.083       .  S
C3924      C3925   1.415       .  A
C3925      C3926   1.397       .  A
C3925     Br3932   1.919       .  S
C3926      C3927   1.406       .  A
C3926      H3931   1.083       .  S
C3928     Br3929   1.922       .  S
C3933      C3934   1.406       .  A
C3933      C3938   1.400   1_554  A
C3933      H3940   1.083       .  S
C3935      C3936   1.408   1_554  A
C3935     Br3942   1.917       .  S
C3936      C3937   1.408       .  A
C3936      H3941   1.083       .  S
C3938     Br3939   1.923       .  S
C3943      C3948   1.401       .  A
C3943      H3950   1.083       .  S
C3944      C3945   1.416       .  A
C3945      C3946   1.405       .  A
C3945     Br3952   1.921       .  S
C3946      H3951   1.082       .  S
C3947      C3948   1.415       .  A
C3948     Br3949   1.922       .  S
C3953      C3954   1.404       .  A
C3953      C3958   1.401       .  A
C3953      H3960   1.083       .  S
C3954      C3955   1.414       .  A
C3955      C3956   1.407       .  A
C3955     Br3962   1.920       .  S
C3956      C3957   1.406       .  A
C3956      H3961   1.083       .  S
C3957      C3958   1.415       .  A
C3958     Br3959   1.922       .  S
C3963      C3964   1.405       .  A
C3963      C3968   1.400       .  A
C3963      H3970   1.084       .  S
C3964      C3965   1.411       .  A
C3965      C3966   1.398       .  A
C3965     Br3972   1.917       .  S
C3966      C3967   1.404       .  A
C3966      H3971   1.084       .  S
C3967      C3968   1.414       .  A
C3968     Br3969   1.921       .  S
C3973      C3974   1.404       .  A
C3973      C3978   1.399       .  A
C3973      H3980   1.083       .  S
C3974      C3975   1.411       .  A
C3975      C3976   1.398       .  A
C3975     Br3982   1.921       .  S
C3976      C3977   1.405       .  A
C3976      H3981   1.084       .  S
C3977      C3978   1.412       .  A
C3978     Br3979   1.921       .  S
C3983      C3984   1.407       .  A
C3983      C3988   1.406       .  A
C3983      H3990   1.083       .  S
C3985      C3986   1.399       .  A
C3985     Br3992   1.922       .  S
C3986      H3991   1.083       .  S
C3987      C3988   1.413       .  A
C3988     Br3989   1.919       .  S
C3993      C3994   1.409       .  A
C3993      C3998   1.403       .  A
C3993      H4000   1.082       .  S
C3995      C3996   1.400       .  A
C3995     Br4002   1.907       .  S
C3996      H4001   1.083       .  S
C3997      C3998   1.413       .  A
C3998     Br3999   1.921       .  S
C4003      C4008   1.401       .  A
C4003      H4010   1.084       .  S
C4004      C4005   1.409       .  A
C4005      C4006   1.399       .  A
C4005     Br4012   1.920       .  S
C4006      C4007   1.406       .  A
C4006      H4011   1.084       .  S
C4008     Br4009   1.920       .  S
C4013      C4014   1.404       .  A
C4013      C4018   1.399       .  A
C4013      H4020   1.084       .  S
C4015      C4016   1.401       .  A
C4015     Br4022   1.922       .  S
C4016      H4021   1.084       .  S
C4017      C4018   1.413       .  A
C4018     Br4019   1.920       .  S
C4023      C4028   1.403       .  A
C4023      H4030   1.084       .  S
C4025      C4026   1.399       .  A
C4025     Br4032   1.920       .  S
C4026      H4031   1.084       .  S
C4028     Br4029   1.919       .  S
C4033      C4034   1.404       .  A
C4033      C4038   1.405       .  A
C4033      H4040   1.083       .  S
C4034      C4035   1.411       .  A
C4035      C4036   1.405       .  A
C4035     Br4042   1.921       .  S
C4036      C4037   1.408       .  A
C4036      H4041   1.083       .  S
C4037      C4038   1.414       .  A
C4038     Br4039   1.919       .  S
C4043      C4044   1.408       .  A
C4043      C4048   1.408       .  A
C4043      H4050   1.084       .  S
C4044      C4045   1.415       .  A
C4045      C4046   1.402       .  A
C4045     Br4052   1.922       .  S
C4046      C4047   1.406       .  A
C4046      H4051   1.084       .  S
C4047      C4048   1.416       .  A
C4048     Br4049   1.919       .  S
C4053      C4054   1.407       .  A
C4053      C4058   1.396       .  A
C4053      H4060   1.083       .  S
C4054      C4055   1.415       .  A
C4055      C4056   1.401       .  A
C4055     Br4062   1.921       .  S
C4056      C4057   1.408       .  A
C4056      H4061   1.083       .  S
C4057      C4058   1.414       .  A
C4058     Br4059   1.922       .  S
C4063      C4064   1.404       .  A
C4063      C4068   1.400       .  A
C4063      H4070   1.084       .  S
C4064      C4065   1.413       .  A
C4065      C4066   1.400       .  A
C4065     Br4072   1.922       .  S
C4066      C4067   1.403       .  A
C4066      H4071   1.084       .  S
C4067      C4068   1.412       .  A
C4068     Br4069   1.921       .  S
C4073      C4078   1.400       .  A
C4073      H4080   1.084       .  S
C4074      C4075   1.411       .  A
C4075      C4076   1.401       .  A
C4075     Br4082   1.920       .  S
C4076      C4077   1.404       .  A
C4076      H4081   1.084       .  S
C4078     Br4079   1.921       .  S
C4083      C4088   1.400       .  A
C4083      H4090   1.083       .  S
C4084      C4085   1.413       .  A
C4085      C4086   1.404       .  A
C4085     Br4092   1.921       .  S
C4086      H4091   1.082       .  S
C4087      C4088   1.413       .  A
C4088     Br4089   1.922       .  S
C4093      C4094   1.407       .  A
C4093      C4098   1.402       .  A
C4093      H4100   1.084       .  S
C4095      C4096   1.405       .  A
C4095     Br4102   1.921       .  S
C4096      H4101   1.084       .  S
C4097      C4098   1.408       .  A
C4098     Br4099   1.919       .  S
C4103      C4104   1.404       .  A
C4103      C4108   1.401       .  A
C4103      H4110   1.083       .  S
C4105      C4106   1.403       .  A
C4105     Br4112   1.916       .  S
C4106      H4111   1.083       .  S
C4107      C4108   1.412       .  A
C4108     Br4109   1.921       .  S
C4113      C4114   1.405       .  A
C4113      C4118   1.398       .  A
C4113      H4120   1.080       .  S
C4115      C4116   1.398       .  A
C4115     Br4122   1.923       .  S
C4116      H4121   1.082       .  S
C4117      C4118   1.416       .  A
C4118     Br4119   1.924       .  S
C4123      C4124   1.408       .  A
C4123      C4128   1.400       .  A
C4123      H4130   1.083       .  S
C4125      C4126   1.396       .  A
C4125     Br4132   1.922       .  S
C4126      H4131   1.084       .  S
C4127      C4128   1.413       .  A
C4128     Br4129   1.921       .  S
C4133      C4138   1.403       .  A
C4133      H4140   1.083       .  S
C4135      C4136   1.400       .  A
C4135     Br4142   1.921       .  S
C4136      H4141   1.083       .  S
C4138     Br4139   1.921       .  S
C4143      C4148   1.399       .  A
C4143      H4150   1.083   1_655  S
C4144      C4145   1.415   1_545  A
C4145      C4146   1.402       .  A
C4145     Br4152   1.921       .  S
C4146      C4147   1.408       .  A
C4146      H4151   1.083       .  S
C4148     Br4149   1.923   1_655  S
C4153      C4154   1.406       .  A
C4153      C4158   1.405       .  A
C4153      H4160   1.082       .  S
C4154      C4155   1.413       .  A
C4155      C4156   1.400       .  A
C4155     Br4162   1.921       .  S
C4156      C4157   1.403       .  A
C4156      H4161   1.083       .  S
C4157      C4158   1.413       .  A
C4158     Br4159   1.921       .  S
C4163      C4168   1.410       .  A
C4163      H4170   1.083       .  S
C4164      C4165   1.418       .  A
C4165      C4166   1.401       .  A
C4165     Br4172   1.923       .  S
C4166      C4167   1.405       .  A
C4166      H4171   1.084       .  S
C4168     Br4169   1.920       .  S
C4173      C4174   1.405       .  A
C4173      C4178   1.401       .  A
C4173      H4180   1.084       .  S
C4174      C4175   1.412       .  A
C4175      C4176   1.395       .  A
C4175     Br4182   1.921       .  S
C4176      C4177   1.402       .  A
C4176      H4181   1.084       .  S
C4177      C4178   1.411       .  A
C4178     Br4179   1.919       .  S
C4183      C4184   1.407       .  A
C4183      C4188   1.402       .  A
C4183      H4190   1.084       .  S
C4184      C4185   1.414       .  A
C4185      C4186   1.398       .  A
C4185     Br4192   1.923       .  S
C4186      C4187   1.406       .  A
C4186      H4191   1.084       .  S
C4187      C4188   1.417       .  A
C4188     Br4189   1.923       .  S
C4193      C4194   1.409       .  A
C4193      C4198   1.407       .  A
C4193      H4200   1.083       .  S
C4195      C4196   1.399       .  A
C4195     Br4202   1.922       .  S
C4196      H4201   1.083       .  S
C4197      C4198   1.415       .  A
C4198     Br4199   1.919       .  S
C4203      C4208   1.401       .  A
C4203      H4210   1.083       .  S
C4204      C4205   1.415       .  A
C4205      C4206   1.400       .  A
C4205     Br4212   1.921       .  S
C4206      H4211   1.083       .  S
C4207      C4208   1.414       .  A
C4208     Br4209   1.921       .  S
C4213      C4218   1.399       .  A
C4213      H4220   1.085       .  S
C4214      C4215   1.412       .  A
C4215      C4216   1.402       .  A
C4215     Br4222   1.920       .  S
C4216      H4221   1.084       .  S
C4217      C4218   1.413       .  A
C4218     Br4219   1.921       .  S
C4223      C4228   1.402       .  A
C4223      H4230   1.083       .  S
C4225      C4226   1.406       .  A
C4225     Br4232   1.920       .  S
C4226      H4231   1.083       .  S
C4228     Br4229   1.922       .  S
C4233      C4234   1.404       .  A
C4233      C4238   1.402       .  A
C4233      H4240   1.084       .  S
C4234      C4235   1.415       .  A
C4235      C4236   1.405       .  A
C4235     Br4242   1.920       .  S
C4236      C4237   1.404       .  A
C4236      H4241   1.084       .  S
C4237      C4238   1.413       .  A
C4238     Br4239   1.921       .  S
C4243      C4244   1.408       .  A
C4243      C4248   1.408       .  A
C4243      H4250   1.083       .  S
C4244      C4245   1.411       .  A
C4245      C4246   1.401       .  A
C4245     Br4252   1.921       .  S
C4246      C4247   1.406       .  A
C4246      H4251   1.084       .  S
C4247      C4248   1.412       .  A
C4248     Br4249   1.918       .  S
C4253      C4254   1.406       .  A
C4253      C4258   1.397       .  A
C4253      H4260   1.084       .  S
C4254      C4255   1.414       .  A
C4255      C4256   1.394       .  A
C4255     Br4262   1.923       .  S
C4256      C4257   1.405       .  A
C4256      H4261   1.084       .  S
C4257      C4258   1.415       .  A
C4258     Br4259   1.924       .  S
C4263      C4264   1.406       .  A
C4263      C4268   1.399       .  A
C4263      H4270   1.084       .  S
C4264      C4265   1.414       .  A
C4265      C4266   1.396       .  A
C4265     Br4272   1.923       .  S
C4266      C4267   1.406       .  A
C4266      H4271   1.084       .  S
C4267      C4268   1.416       .  A
C4268     Br4269   1.923       .  S
C4273      C4278   1.402       .  A
C4273      H4280   1.083       .  S
C4274      C4275   1.416       .  A
C4275      C4276   1.408       .  A
C4275     Br4282   1.920       .  S
C4276      C4277   1.406       .  A
C4276      H4281   1.083       .  S
C4278     Br4279   1.920       .  S
C4283      C4284   1.410       .  A
C4283      C4288   1.410       .  A
C4283      H4290   1.083       .  S
C4285      C4286   1.398       .  A
C4285     Br4292   1.921       .  S
C4286      H4291   1.083       .  S
C4287      C4288   1.414       .  A
C4288     Br4289   1.920       .  S
C4293      C4298   1.403       .  A
C4293      H4300   1.084       .  S
C4294      C4295   1.413       .  A
C4295      C4296   1.405       .  A
C4295     Br4302   1.919       .  S
C4296      C4297   1.405       .  A
C4296      H4301   1.084       .  S
C4298     Br4299   1.920       .  S
C4303      C4304   1.404       .  A
C4303      C4308   1.400       .  A
C4303      H4310   1.084       .  S
C4305      C4306   1.408       .  A
C4305     Br4312   1.919       .  S
C4306      H4311   1.083       .  S
C4307      C4308   1.415       .  A
C4308     Br4309   1.923       .  S
C4313      C4314   1.403       .  A
C4313      C4318   1.396       .  A
C4313      H4320   1.084       .  S
C4315      C4316   1.399       .  A
C4315     Br4322   1.922       .  S
C4316      C4317   1.405       .  A
C4316      H4321   1.084       .  S
C4318     Br4319   1.922       .  S
C4323      C4328   1.400       .  A
C4323      H4330   1.083       .  S
C4324      C4325   1.414       .  A
C4325      C4326   1.400       .  A
C4325     Br4332   1.921       .  S
C4326      H4331   1.084       .  S
C4327      C4328   1.414       .  A
C4328     Br4329   1.922       .  S
C4333      C4338   1.405       .  A
C4333      H4340   1.083       .  S
C4335      C4336   1.405       .  A
C4335     Br4342   1.919       .  S
C4336      H4341   1.083       .  S
C4338     Br4339   1.920       .  S
C4343      C4348   1.405       .  A
C4343      H4350   1.083       .  S
C4344      C4345   1.414   1_545  A
C4345      C4346   1.400       .  A
C4345     Br4352   1.922       .  S
C4346      H4351   1.083       .  S
C4347      C4348   1.416       .  A
C4348     Br4349   1.921       .  S
