geometry optimzed in LAMMPS
_audit_creation_date              2020-11-30 
_audit_creation_method            'lammps2cif' 
_symmetry_space_group_name_H-M    'P1' 
_symmetry_Int_Tables_number       1 
_symmetry_cell_setting            triclinic 
loop_ 
_symmetry_equiv_pos_as_xyz 
  x,y,z 
_cell_length_a                    38.07919004 
_cell_length_b                    37.82660354020948 
_cell_length_c                    27.602064203362037 
_cell_angle_alpha                 89.4311978020456 
_cell_angle_beta                  91.19492212108212 
_cell_angle_gamma                 96.19557694048439 
loop_ 
_atom_site_label 
_atom_site_type_symbol 
_atom_site_fract_x 
_atom_site_fract_y 
_atom_site_fract_z 
_atom_site_charge 
C1          C  0.87106049  0.36184482  0.30428457     0.30800
C2          C  0.86966344  0.36851458  0.07309661     0.30800
C3          C  0.90593662  0.37763330  0.33105360    -0.05400
C4          C  0.84274673  0.38171933  0.33087322    -0.06200
C5          C  0.86547698  0.32558390  0.33363354    -0.06000
C6          C  0.90433332  0.37973868  0.04566383    -0.03400
C7          C  0.84545845  0.39420111  0.04703294    -0.06200
C8          C  0.85740510  0.33252354  0.04682218    -0.06100
C9          C  0.93686675  0.39683146  0.05921092    -0.31400
N10         N  0.95485982  0.40848781  0.01893545     0.15100
C11         C  0.93825667  0.39459841  0.31704432    -0.31400
H12         H  0.94654946  0.39908708  0.28013818     0.17000
C13         C  0.81448337  0.40533216  0.06399534    -0.30400
N14         N  0.79039113  0.38941730  0.36488779     0.13800
C15         C  0.80605494  0.37645252  0.32656857    -0.30400
C16         C  0.85181591  0.29757427  0.06198117    -0.30700
N17         N  0.87603803  0.27257390  0.36801674     0.14300
H18         H  0.85161990  0.28819274  0.09901150     0.16900
C19         C  0.87943523  0.29350626  0.32800255    -0.30700
H20         H  0.89842918  0.28892118  0.30151593     0.16900
H21         H  0.79163832  0.35715505  0.30328011     0.16900
H22         H  0.94545084  0.40284861  0.09599294     0.17000
H23         H  0.80945475  0.41171620  0.10108993     0.16900
C24         C  0.87051602  0.36691115  0.13473242     0.30800
C25         C  0.86959189  0.36450904  0.24027243     0.30800
C26         C  0.88072511  0.40213039  0.16263401    -0.05400
C27         C  0.83491308  0.35237817  0.15982053    -0.06200
C28         C  0.89668667  0.34380107  0.16077418    -0.06000
C29         C  0.88169789  0.40102332  0.21440509    -0.05400
C30         C  0.83381263  0.35564007  0.21165739    -0.06200
C31         C  0.89216014  0.33896712  0.21242093    -0.06100
C32         C  0.89982619  0.43328669  0.22849660    -0.31400
N33         N  0.91096330  0.45263596  0.18849441     0.15100
C34         C  0.89811705  0.43435529  0.14866278    -0.31400
H35         H  0.90361625  0.44242907  0.11176679     0.17000
C36         C  0.80153042  0.36868425  0.21703654    -0.30400
N37         N  0.78039960  0.36241937  0.17775792     0.13800
C38         C  0.80043303  0.35139622  0.14245636    -0.30400
C39         C  0.88934378  0.30214076  0.21585055    -0.30700
N40         N  0.90207620  0.28742155  0.17667459     0.14300
H41         H  0.87029663  0.28675547  0.23794002     0.16900
C42         C  0.90784957  0.31302897  0.14294993    -0.30700
H43         H  0.91340019  0.30797599  0.10555353     0.16900
H44         H  0.79165294  0.34816111  0.10519163     0.16900
H45         H  0.90654536  0.44098681  0.26531631     0.17000
H46         H  0.79694294  0.38948706  0.24156035     0.16900
C47         C  0.51994005  0.88337933  0.30083859     0.30800
C48         C  0.51485535  0.87933552  0.07232892     0.30800
C49         C  0.51012689  0.91409357  0.99304993    -0.05400
C50         C  0.48702806  0.85249866  0.99286894    -0.06200
C51         C  0.54923068  0.86926917  0.99588898    -0.06000
C52         C  0.50943903  0.91404096  0.04448582    -0.05400
C53         C  0.48709885  0.85212533  0.04548557    -0.06200
C54         C  0.54839769  0.86977649  0.04745863    -0.06100
C55         C  0.49780063  0.94554095  0.05800237    -0.31400
N56         N  0.49021444  0.96434842  0.01761827     0.15100
C57         C  0.50489546  0.94918363  0.31195983    -0.31400
H58         H  0.49716156  0.95443444  0.27497691     0.17000
C59         C  0.47603542  0.81702354  0.05866102    -0.30400
N60         N  0.46947998  0.79658861  0.01874983     0.13800
C61         C  0.46198703  0.83811111  0.31163803    -0.30400
C62         C  0.58158387  0.86558279  0.06435884    -0.30700
N63         N  0.60308069  0.86394809  0.02627945     0.14300
H64         H  0.59030327  0.86706913  0.10188116     0.16900
C65         C  0.58718921  0.86824469  0.31742395    -0.30700
H66         H  0.59811578  0.87324205  0.28196649     0.16900
H67         H  0.45763424  0.82975967  0.27444642     0.16900
H68         H  0.49229133  0.95259088  0.09465137     0.17000
H69         H  0.47683789  0.80618964  0.09494645     0.16900
C70         C  0.51772338  0.88256996  0.23895998     0.30800
C71         C  0.51607101  0.88164332  0.13397845     0.30800
C72         C  0.48136864  0.88444272  0.21239241    -0.05400
C73         C  0.53967837  0.91338617  0.21168082    -0.06200
C74         C  0.52998410  0.84971125  0.21291664    -0.06000
C75         C  0.48046057  0.88338587  0.16038935    -0.05400
C76         C  0.53928798  0.91295789  0.15948984    -0.06200
C77         C  0.53028076  0.85032498  0.16136608    -0.06100
C78         C  0.45119690  0.89958976  0.14575527    -0.31400
N79         N  0.43483765  0.91110406  0.18501289     0.15100
C80         C  0.45282705  0.90170188  0.22536810    -0.31400
H81         H  0.44828308  0.91047046  0.26157281     0.17000
C82         C  0.57194405  0.92953347  0.14649159    -0.30400
N83         N  0.59141118  0.93972457  0.18663648     0.13800
C84         C  0.57156208  0.93097651  0.22584287    -0.30400
C85         C  0.53637430  0.81734888  0.14627160    -0.30700
N86         N  0.53614513  0.79538591  0.18494371     0.14300
H87         H  0.53639491  0.80857285  0.10912717     0.16900
C88         C  0.53176248  0.81439619  0.22570449    -0.30700
H89         H  0.52684117  0.80285241  0.26127729     0.16900
H90         H  0.58233378  0.93078760  0.26240620     0.16900
H91         H  0.44506321  0.90628603  0.10867565     0.17000
H92         H  0.58308742  0.92838644  0.11092714     0.16900
O93         O  0.03368913  0.98466737  0.30038715    -0.80100
O94         O  0.87298754  0.96144245  0.02890213    -0.64800
O95         O  0.97590759  0.97716971  0.02364139    -1.11400
C96         C  0.97138014  0.85410443  0.02098406     1.06800
O97         O  0.86421286  0.90219010  0.01573767    -0.78000
O98         O  0.91663311  0.91743709  0.07770132    -0.65600
Ni99       Ni  0.98540109  0.99875184  0.30170375     1.34900
C100        C  0.94718418  0.93102569  0.08979559     0.85500
O101        O  0.92116387  0.01622367  0.05873267    -0.78500
O102        O  0.94003616  0.01726632  0.30652616    -0.88800
C103        C  0.85312139  0.93251586  0.01969893     0.85100
O104        O  0.96491955  0.95094903  0.30164946    -0.67000
O105        O  0.94780303  0.86109528  0.04979314    -0.86300
C106        C  0.93596140  0.93741865  0.28372055     0.85900
C107        C  0.94028533  0.04607090  0.05345247     1.07500
H108        H  0.91954383  0.88618911  0.34165369     0.39300
O109        O  0.93058802  0.92276602  0.99879819    -1.09000
O110        O  0.97514762  0.92034486  0.07289177    -0.65600
Ni111      Ni  0.98133255  0.92907647  0.00546717     1.26300
O112        O  0.90874418  0.94511974  0.30398178    -0.65800
O113        O  0.98626431  0.87868939  0.99371415    -0.78100
C114        C  0.04999472  0.96530925  0.99287901     0.85300
O115        O  0.03149766  0.93875755  0.01216642    -0.65300
Ni116      Ni  0.90709619  0.88359716  0.03177535     1.27400
Ni117      Ni  0.92448205  0.97052240  0.02847780     1.26100
H118        H  0.99021951  0.97889166  0.05190761     0.39900
O119        O  0.03379307  0.98708925  0.18413999    -0.80100
O120        O  0.86599145  0.95710318  0.19422106    -0.64800
O121        O  0.96717731  0.96686744  0.20623734    -1.11400
C122        C  0.95528603  0.84275680  0.16598488     1.06800
O123        O  0.85291688  0.90081891  0.22074452    -0.78000
O124        O  0.91235756  0.88041417  0.26282902    -0.65600
Ni125      Ni  0.99089648  0.00735623  0.17553817     1.34900
C126        C  0.93899854  0.90312065  0.26357308     0.85500
O127        O  0.91314035  0.01164128  0.21943910    -0.78500
O128        O  0.95036481  0.03138587  0.16334874    -0.88800
C129        C  0.84422971  0.93161716  0.20900200     0.85100
O130        O  0.97996035  0.97747964  0.12593529    -0.67000
O131        O  0.92535784  0.84214678  0.18612417    -0.86300
C132        C  0.94929085  0.96320552  0.11635338     0.85900
C133        C  0.92862810  0.03729929  0.19517003     1.07500
H134        H  0.90404912  0.91390446  0.15079685     0.39300
O135        O  0.91849303  0.91465811  0.17893944    -1.09000
O136        O  0.96680611  0.89808498  0.24098427    -0.65600
Ni137      Ni  0.97069822  0.91957440  0.17875627     1.26300
O138        O  0.92186235  0.97373595  0.13503645    -0.65800
O139        O  0.97387336  0.87174915  0.15400956    -0.78100
C140        C  0.04409075  0.95622005  0.18203218     0.85300
O141        O  0.02294668  0.92705129  0.18027604    -0.65300
Ni142      Ni  0.89086984  0.87332151  0.20293182     1.27400
Ni143      Ni  0.91593927  0.96236448  0.20151173     1.26100
H144        H  0.98149514  0.96942155  0.23443103     0.39900
C145        C  0.02623977  0.51991685  0.30193581     0.30800
C146        C  0.02506441  0.52139368  0.07382273     0.30800
C147        C  0.01181353  0.48819660  0.99374338    -0.05400
C148        C  0.05771259  0.53636692  0.99451222    -0.06200
C149        C  0.99737680  0.54790343  0.99772474    -0.06000
C150        C  0.01373699  0.48645285  0.04544291    -0.05400
C151        C  0.05957882  0.53444048  0.04613112    -0.06200
C152        C  0.99923937  0.54615581  0.04955018    -0.06100
C153        C  0.99678380  0.45382792  0.05877159    -0.31400
N154        N  0.98330460  0.43620053  0.01858676     0.15100
C155        C  0.99870471  0.45212548  0.31653075    -0.31400
H156        H  0.99131485  0.44457930  0.27981223     0.17000
C157        C  0.09513590  0.53942381  0.05868665    -0.30400
N158        N  0.11483902  0.54292132  0.01788649     0.13800
C159        C  0.09223261  0.54223926  0.97896955    -0.30400
C160        C  0.98580964  0.57648336  0.06567941    -0.30700
N161        N  0.97732740  0.59661393  0.02718198     0.14300
H162        H  0.98565883  0.58530620  0.10274429     0.16900
C163        C  0.98272216  0.57882138  0.98616044    -0.30700
H164        H  0.97917898  0.57661205  0.27074625     0.16900
H165        H  0.10641992  0.54226817  0.28219066     0.16900
H166        H  0.99184352  0.44516025  0.09560569     0.17000
H167        H  0.10601106  0.53844872  0.09506907     0.16900
C168        C  0.02618171  0.51966808  0.13554235     0.30800
C169        C  0.02588523  0.52025635  0.24052609     0.30800
C170        C  0.98992551  0.51052705  0.16165597    -0.05400
C171        C  0.04912787  0.49370656  0.16365382    -0.06200
C172        C  0.04005617  0.55476292  0.16168337    -0.06000
C173        C  0.99001598  0.51080257  0.21330453    -0.05400
C174        C  0.04822051  0.49393465  0.21565636    -0.06200
C175        C  0.03926478  0.55550048  0.21320632    -0.06100
C176        C  0.95824322  0.49294231  0.22757331    -0.31400
N177        N  0.93917232  0.48066174  0.18787388     0.15100
C178        C  0.95785934  0.49199116  0.14783979    -0.31400
H179        H  0.95017278  0.48474734  0.11114116     0.17000
C180        C  0.07838814  0.48076689  0.23263065    -0.30400
N181        N  0.09887071  0.47412464  0.19505193     0.13800
C182        C  0.08120171  0.48135221  0.15319223    -0.30400
C183        C  0.04340004  0.59123141  0.22526165    -0.30700
N184        N  0.04772752  0.61154327  0.18427279     0.14300
H185        H  0.04024685  0.60176011  0.26095139     0.16900
C186        C  0.04716760  0.58945728  0.14590371    -0.30700
H187        H  0.04754042  0.59839020  0.10856727     0.16900
H188        H  0.09209728  0.48052271  0.11750975     0.16900
H189        H  0.95111487  0.48655994  0.26451985     0.17000
H190        H  0.08674454  0.48019479  0.27023641     0.16900
C191        C  0.38442058  0.02055682  0.06489691     0.30800
C192        C  0.38697693  0.02461187  0.29337240     0.30800
C193        C  0.42033384  0.01739030  0.04024557    -0.05400
C194        C  0.36009490  0.99148812  0.03649041    -0.06200
C195        C  0.37341961  0.05399578  0.03853009    -0.06000
C196        C  0.42111556  0.01538782  0.32115234    -0.05400
C197        C  0.35905059  0.99875971  0.32039331    -0.06200
C198        C  0.38156616  0.06031735  0.31924426    -0.06100
C199        C  0.45127557  0.00067550  0.30838837    -0.31400
N200        N  0.46711531  0.99134820  0.01653593     0.15100
C201        C  0.44930535  0.00114613  0.05558097    -0.31400
H202        H  0.45449805  0.99347555  0.09255204     0.17000
C203        C  0.32615261  0.98270414  0.30617180    -0.30400
N204        N  0.30618193  0.97227784  0.00671485     0.13800
C205        C  0.32618752  0.97737444  0.04761593    -0.30400
C206        C  0.38004470  0.09514845  0.30400516    -0.30700
N207        N  0.36330118  0.10818242  0.01547073     0.14300
H208        H  0.37856885  0.10437171  0.26689077     0.16900
C209        C  0.36479810  0.08615678  0.05411174    -0.30700
H210        H  0.36329127  0.09432079  0.09141027     0.16900
H211        H  0.31550676  0.97503806  0.08352130     0.16900
H212        H  0.45824999  0.99492904  0.27180686     0.17000
H213        H  0.31640443  0.97910672  0.26937681     0.16900
C214        C  0.38451041  0.02138747  0.12646809     0.30800
C215        C  0.38618639  0.02382554  0.23158350     0.30800
C216        C  0.38933181  0.98654661  0.15502494    -0.05400
C217        C  0.41383857  0.04731509  0.15176898    -0.06200
C218        C  0.35143113  0.03234795  0.15226380    -0.06000
C219        C  0.38993368  0.98764985  0.20667334    -0.05400
C220        C  0.41521456  0.04801097  0.20385548    -0.06200
C221        C  0.35238953  0.03416565  0.20396755    -0.06100
C222        C  0.40287005  0.95675496  0.22243393    -0.31400
N223        N  0.41123467  0.93772756  0.18346891     0.15100
C224        C  0.40202194  0.95519331  0.14252754    -0.31400
H225        H  0.40739119  0.94764570  0.10602662     0.17000
C226        C  0.43195704  0.08105235  0.21608262    -0.30400
N227        N  0.43869039  0.10103431  0.17571481     0.13800
C228        C  0.42829052  0.08069924  0.13683211    -0.30400
C229        C  0.31794700  0.03619595  0.21758628    -0.30700
N230        N  0.29626374  0.03275597  0.17785805     0.14300
H231        H  0.30874497  0.03675325  0.25429266     0.16900
C232        C  0.31639567  0.03197580  0.13808928    -0.30700
H233        H  0.30583192  0.02949585  0.10158139     0.16900
H234        H  0.42668856  0.09123749  0.10044283     0.16900
H235        H  0.40876811  0.95036768  0.25969295     0.17000
H236        H  0.43475172  0.09172106  0.25219215     0.16900
O237        O  0.39380988  0.37683212  0.07860459    -0.80100
O238        O  0.44629742  0.52501529  0.97515511    -0.64800
O239        O  0.41534454  0.42827109  0.01121038    -1.11400
C240        C  0.55289951  0.45385141  0.35800798     1.06800
O241        O  0.50017969  0.56539670  0.33534921    -0.78000
O242        O  0.49524419  0.50969925  0.27973437    -0.65600
Ni243      Ni  0.37730098  0.42138903  0.05659788     1.34900
C244        C  0.48247703  0.47772465  0.27621909     0.85500
O245        O  0.38266526  0.48831184  0.97506286    -0.78500
O246        O  0.35462595  0.46279814  0.03833436    -0.88800
C247        C  0.47589715  0.54049494  0.96204866     0.85100
O248        O  0.40421928  0.44979653  0.10100419    -0.67000
O249        O  0.55347974  0.48387816  0.33562185    -0.86300
C250        C  0.43215159  0.46687470  0.08741828     0.85900
C251        C  0.35620532  0.48444307  0.00283137     1.07500
H252        H  0.48466721  0.48802476  0.02602499     0.39300
O253        O  0.47776868  0.46752496  0.00661497    -1.09000
O254        O  0.49653502  0.45445928  0.29722825    -0.65600
Ni255      Ni  0.46368731  0.41897469  0.03050613     1.26300
O256        O  0.42858590  0.49062777  0.05546271    -0.65800
O257        O  0.51196217  0.41104145  0.04911912    -0.78100
C258        C  0.41932685  0.35870916  0.06900353     0.85300
O259        O  0.44814603  0.37178880  0.05031003    -0.65300
Ni260      Ni  0.52404071  0.52319242  0.33479040     1.27400
Ni261      Ni  0.43053651  0.47697191  0.98986730     1.26100
H262        H  0.41408732  0.46954806  0.31695090     0.39900
O263        O  0.41377903  0.36743560  0.22942604    -0.80100
O264        O  0.43162512  0.53300430  0.16057270    -0.64800
O265        O  0.42077560  0.43062981  0.18143867    -1.11400
C266        C  0.54843109  0.44805192  0.17528554     1.06800
O267        O  0.47389177  0.53286522  0.10590331    -0.78000
O268        O  0.49610180  0.46676891  0.09374481    -0.65600
Ni269      Ni  0.39450192  0.41262751  0.23493826     1.34900
C270        C  0.46575845  0.45019969  0.09695237     0.85500
O271        O  0.37481929  0.48244628  0.17040801    -0.78500
O272        O  0.36941350  0.45444021  0.24109054    -0.88800
C273        C  0.45367352  0.54942586  0.13172872     0.85100
O274        O  0.43724400  0.43395942  0.26089695    -0.67000
O275        O  0.54735070  0.47962987  0.15842089    -0.86300
C276        C  0.44884463  0.46665920  0.25572854     0.85900
C277        C  0.35562849  0.46959678  0.20497799     1.07500
H278        H  0.48584688  0.49769920  0.19866488     0.39300
O279        O  0.47612446  0.48149905  0.17474058    -1.09000
O280        O  0.46525102  0.42114574  0.11900230    -0.65600
Ni281      Ni  0.47127447  0.42928406  0.18568639     1.26300
O282        O  0.43015493  0.48896605  0.23655962    -0.65800
O283        O  0.52113650  0.42706016  0.18549686    -0.78100
C284        C  0.44185641  0.35736181  0.21193374     0.85300
O285        O  0.46666772  0.37881247  0.19499030    -0.65300
Ni286      Ni  0.50926772  0.50505892  0.13237067     1.27400
Ni287      Ni  0.42537225  0.48243656  0.17007611     1.26100
H288        H  0.41136264  0.41332944  0.15792869     0.39900
C289        C  0.42078254  0.19741489  0.18331648     0.16700
C290        C  0.40501541  0.22892381  0.18848307    -0.32300
C291        C  0.42715372  0.26027192  0.19766695     0.21100
C292        C  0.46356224  0.26049716  0.20048637     0.03300
C293        C  0.47939748  0.22874072  0.19633278    -0.22000
C294        C  0.45711394  0.19712205  0.18803124     0.12500
S295        S  0.39806406  0.15680104  0.17269665    -0.05700
C296        C  0.43772382  0.13886497  0.17579309    -0.09100
C297        C  0.46705928  0.16326615  0.18423786    -0.25800
S298        S  0.48571853  0.30198906  0.20812771    -0.02900
C299        C  0.44536773  0.31888966  0.20936309    -0.16400
C300        C  0.41656858  0.29348352  0.20351243    -0.14400
H301        H  0.37662839  0.22899849  0.18542226     0.21000
H302        H  0.50778936  0.22870397  0.19930740     0.17000
H303        H  0.49387670  0.15650961  0.18827240     0.19500
H304        H  0.38931423  0.29921311  0.20183347     0.12900
C305        C  0.41829892  0.25831172  0.06140604     0.16700
C306        C  0.42607300  0.22471740  0.04714460    -0.32300
C307        C  0.39771228  0.19857822  0.03928323     0.21100
C308        C  0.38337992  0.21816939  0.33663074     0.03300
C309        C  0.37473530  0.25335211  0.33693845    -0.22000
C310        C  0.38372507  0.26518322  0.06835667     0.12500
S311        S  0.44872991  0.29457838  0.06611434    -0.05700
C312        C  0.41453338  0.31984587  0.07592688    -0.09100
C313        C  0.39898792  0.31686442  0.33874386    -0.25800
S314        S  0.35344209  0.18097588  0.34109656    -0.02900
C315        C  0.36705079  0.14585177  0.02065210    -0.16400
C316        C  0.40009048  0.16475647  0.02390692    -0.14400
H317        H  0.45300317  0.21953147  0.04075639     0.21000
H318        H  0.34753442  0.25886086  0.33971285     0.17000
H319        H  0.37382060  0.32736169  0.34229832     0.19500
H320        H  0.42461693  0.15368011  0.01741942     0.12900
C321        C  0.25677310  0.47315305  0.17489581     0.16700
C322        C  0.22401308  0.47471917  0.15126609    -0.32300
C323        C  0.19363814  0.47084211  0.17939548     0.21100
C324        C  0.19576392  0.46547041  0.22906069     0.03300
C325        C  0.22861657  0.46314742  0.25272525    -0.22000
C326        C  0.25912063  0.46696443  0.22433753     0.12500
S327        S  0.29638365  0.47787424  0.14679941    -0.05700
C328        C  0.31691808  0.47140538  0.20174637    -0.09100
C329        C  0.29361676  0.46510502  0.23987527    -0.25800
S330        S  0.15578722  0.46284938  0.25669007    -0.02900
C331        C  0.13589632  0.46896761  0.20056765    -0.16400
C332        C  0.15955311  0.47259420  0.16277517    -0.14400
H333        H  0.22221851  0.47867953  0.11247920     0.21000
H334        H  0.23033571  0.45887165  0.29151593     0.17000
H335        H  0.30146393  0.45954744  0.27686387     0.19500
H336        H  0.15256108  0.47743219  0.12530082     0.12900
C337        C  0.26685182  0.51985069  0.97271845     0.16700
C338        C  0.23258917  0.52293342  0.95362103    -0.32300
C339        C  0.20647315  0.53160665  0.98579423     0.21100
C340        C  0.21452016  0.53773133  0.03440039     0.03300
C341        C  0.24701506  0.54026812  0.41413343    -0.22000
C342        C  0.27439645  0.52542420  0.02144318     0.12500
S343        S  0.30160349  0.50627897  0.94157059    -0.05700
C344        C  0.32535870  0.50519391  0.99529845    -0.09100
C345        C  0.30789652  0.51775817  0.03416029    -0.25800
S346        S  0.17580259  0.54810582  0.41975766    -0.02900
C347        C  0.15284303  0.54182696  0.01658242    -0.16400
C348        C  0.17109856  0.53394873  0.97524512    -0.14400
H349        H  0.22627948  0.51766816  0.91577160     0.21000
H350        H  0.24874242  0.53733452  0.45314996     0.17000
H351        H  0.31578925  0.52223781  0.43806136     0.19500
H352        H  0.15909739  0.52902893  0.93972349     0.12900
C353        C  0.14489304  0.96341907  0.16113348     0.16700
C354        C  0.17945251  0.96463247  0.14295653    -0.32300
C355        C  0.20575355  0.98998798  0.16304191     0.21100
C356        C  0.19801849  0.01232912  0.19997504     0.03300
C357        C  0.16377363  0.01161840  0.21695309    -0.22000
C358        C  0.13770416  0.98716389  0.19640425     0.12500
S359        S  0.10794024  0.93597128  0.14211704    -0.05700
C360        C  0.08314471  0.95729396  0.18236149    -0.09100
C361        C  0.10290074  0.98451895  0.20720500    -0.25800
S362        S  0.23297067  0.04009244  0.22170446    -0.02900
C363        C  0.25867055  0.02288686  0.17936131    -0.16400
C364        C  0.24080259  0.99620594  0.15066150    -0.14400
H365        H  0.18547566  0.94704868  0.11427762     0.21000
H366        H  0.15758910  0.02961074  0.24505836     0.17000
H367        H  0.09193061  0.00261506  0.23144864     0.19500
H368        H  0.25302495  0.98151932  0.12337263     0.12900
C369        C  0.97395544  0.74460632  0.16756531     0.16700
C370        C  0.97155951  0.70810355  0.17765515    -0.32300
C371        C  0.00219818  0.69104293  0.17445665     0.21100
C372        C  0.03392199  0.70918368  0.16016947     0.03300
C373        C  0.03627694  0.74607467  0.14950810    -0.22000
C374        C  0.00551475  0.76359060  0.15429798     0.12500
S375        S  0.93984590  0.76955996  0.17335843    -0.05700
C376        C  0.96789799  0.80706227  0.15938231    -0.09100
C377        C  0.00224283  0.79976457  0.14935736    -0.25800
S378        S  0.06786314  0.68257115  0.15840956    -0.02900
C379        C  0.03905169  0.64758285  0.17944732    -0.16400
C380        C  0.00494552  0.65596969  0.18536246    -0.14400
H381        H  0.94691309  0.69373947  0.18899497     0.21000
H382        H  0.06108382  0.76056684  0.13911353     0.17000
H383        H  0.02383746  0.81979317  0.14114273     0.19500
H384        H  0.98312327  0.63708260  0.19644545     0.12900
C385        C  0.21013802  0.99115423  0.00550837     0.16700
C386        C  0.17806063  0.00608940  0.00861916    -0.32300
C387        C  0.14673042  0.98396971  0.99879292     0.21100
C388        C  0.14734893  0.94858582  0.98649024     0.03300
C389        C  0.17941746  0.93394459  0.98219616    -0.22000
C390        C  0.21073037  0.95594778  0.99212059     0.12500
S391        S  0.25092009  0.01300333  0.01796825    -0.05700
C392        C  0.26876303  0.97421094  0.00519089    -0.09100
C393        C  0.24445332  0.94617361  0.99127454    -0.25800
S394        S  0.10656343  0.92547975  0.97894953    -0.02900
C395        C  0.08840170  0.96413506  0.99082160    -0.16400
C396        C  0.11286722  0.99318134  0.00083663    -0.14400
H397        H  0.17030242  0.02182558  0.37286412     0.21000
H398        H  0.17990391  0.90635933  0.97241604     0.17000
H399        H  0.25109604  0.92007360  0.98163991     0.19500
H400        H  0.10618157  0.01936392  0.01007094     0.12900
C401        C  0.96073425  0.69333936  0.04218862     0.16700
C402        C  0.94667770  0.72518513  0.05152351    -0.32300
C403        C  0.96581018  0.75705366  0.03656020     0.21100
C404        C  0.99808824  0.75780982  0.01424855     0.03300
C405        C  0.01231178  0.72571335  0.00478782    -0.22000
C406        C  0.99254574  0.69351494  0.01859907     0.12500
S407        S  0.94089660  0.65191227  0.05698792    -0.05700
C408        C  0.97492758  0.63429245  0.02923570    -0.09100
C409        C  0.00075186  0.65948416  0.01082730    -0.25800
S410        S  0.01629412  0.80012753  0.99853254    -0.02900
C411        C  0.97935012  0.81645647  0.02129238    -0.16400
C412        C  0.95519042  0.79016034  0.04072256    -0.14400
H413        H  0.92155321  0.72513121  0.06921283     0.21000
H414        H  0.01211705  0.71038187  0.27538653     0.17000
H415        H  0.99855908  0.63947924  0.28544293     0.19500
H416        H  0.93031697  0.79494318  0.05644818     0.12900
C417        C  0.46278259  0.64881900  0.15632024     0.16700
C418        C  0.46248004  0.68175991  0.17874140    -0.32300
C419        C  0.49167269  0.70705414  0.17196214     0.21100
C420        C  0.51943800  0.70038986  0.14294829     0.03300
C421        C  0.51899745  0.66798359  0.11872634    -0.22000
C422        C  0.49027559  0.64227400  0.12667677     0.12500
S423        S  0.43282148  0.61279777  0.16650535    -0.05700
C424        C  0.45785565  0.58846514  0.13095604    -0.09100
C425        C  0.48713598  0.60787028  0.11109340    -0.25800
S426        S  0.55239617  0.73466633  0.13980858    -0.02900
C427        C  0.52873380  0.75783206  0.17892102    -0.16400
C428        C  0.49663282  0.74019066  0.19183055    -0.14400
H429        H  0.44114353  0.68689820  0.20211497     0.21000
H430        H  0.54064078  0.66257724  0.09606485     0.17000
H431        H  0.50677702  0.59669273  0.08984836     0.19500
H432        H  0.47691899  0.75195835  0.21187997     0.12900
C433        C  0.68515051  0.91891230  0.20475171     0.16700
C434        C  0.71541829  0.90234553  0.21534963    -0.32300
C435        C  0.74789369  0.92316184  0.21355877     0.21100
C436        C  0.75028109  0.95910484  0.20207001     0.03300
C437        C  0.71976211  0.97600741  0.19236590    -0.22000
C438        C  0.68706060  0.95497516  0.19380469     0.12500
S439        S  0.64376301  0.89734636  0.20405465    -0.05700
C440        C  0.62851318  0.93725383  0.18948131    -0.09100
C441        C  0.65418283  0.96587565  0.18495137    -0.25800
S442        S  0.79261774  0.97876922  0.19804492    -0.02900
C443        C  0.80693503  0.93796310  0.21156017    -0.16400
C444        C  0.78018215  0.91102232  0.21984852    -0.14400
H445        H  0.71373168  0.87420843  0.22386245     0.21000
H446        H  0.72149365  0.00400676  0.18305586     0.17000
H447        H  0.64904302  0.99286188  0.17646002     0.19500
H448        H  0.78407769  0.88357970  0.22764125     0.12900
C449        C  0.45743554  0.69431541  0.01732396     0.16700
C450        C  0.44427131  0.65808523  0.01807076    -0.32300
C451        C  0.46437716  0.63348600  0.99648659     0.21100
C452        C  0.49658894  0.64407597  0.97573325     0.03300
C453        C  0.51026033  0.68036318  0.97601854    -0.22000
C454        C  0.48977811  0.70518100  0.99686442     0.12500
S455        S  0.43548733  0.72864345  0.03774029    -0.05700
C456        C  0.46979167  0.75824194  0.01757043    -0.09100
C457        C  0.49722902  0.74177966  0.99771354    -0.25800
S458        S  0.51595790  0.60944415  0.95028746    -0.02900
C459        C  0.47990911  0.58037474  0.96715608    -0.16400
C460        C  0.45506530  0.59745934  0.99222248    -0.14400
H461        H  0.41889962  0.64948153  0.03369764     0.21000
H462        H  0.47930632  0.70870276  0.27542705     0.17000
H463        H  0.52101737  0.75591868  0.98344972     0.19500
H464        H  0.43096079  0.58407286  0.00685446     0.12900
C465        C  0.69822238  0.89995749  0.05022052     0.16700
C466        C  0.72949121  0.91866933  0.06815258    -0.32300
C467        C  0.75874630  0.92179420  0.03791047     0.21100
C468        C  0.75682795  0.90611001  0.99258670     0.03300
C469        C  0.72904369  0.86082324  0.42677077    -0.22000
C470        C  0.69612755  0.88576015  0.00398766     0.12500
S471        S  0.65999094  0.89336946  0.08091709    -0.05700
C472        C  0.64060495  0.87231499  0.03036965    -0.09100
C473        C  0.66310479  0.86994717  0.99218195    -0.25800
S474        S  0.80176355  0.86809018  0.44696596    -0.02900
C475        C  0.81505928  0.93186219  0.01224762    -0.16400
C476        C  0.79222132  0.93717891  0.04930300    -0.14400
H477        H  0.73101398  0.92990538  0.10412382     0.21000
H478        H  0.72445269  0.84231927  0.45671586     0.17000
H479        H  0.65468455  0.83902700  0.42766403     0.19500
H480        H  0.80027024  0.94849390  0.08422503     0.12900
C481        C  0.93492618  0.13747607  0.19050682     0.16700
C482        C  0.94753445  0.17274193  0.18058504    -0.32300
C483        C  0.92284035  0.19711680  0.17444636     0.21100
C484        C  0.88689884  0.18691457  0.17819174     0.03300
C485        C  0.87407523  0.15108950  0.18699592    -0.22000
C486        C  0.89906942  0.12647213  0.19322044     0.12500
S487        S  0.96148060  0.10472603  0.19741132    -0.05700
C488        C  0.92427886  0.07492365  0.20252218    -0.09100
C489        C  0.89260705  0.09011366  0.20038817    -0.25800
S490        S  0.86184434  0.22181553  0.17532835    -0.02900
C491        C  0.90040076  0.24990700  0.16894237    -0.16400
C492        C  0.93066063  0.23300091  0.16815331    -0.14400
H493        H  0.97559811  0.18092068  0.17825496     0.21000
H494        H  0.84603625  0.14293116  0.18956287     0.17000
H495        H  0.86663354  0.07531278  0.20026322     0.19500
H496        H  0.95716867  0.24658917  0.16728922     0.12900
C497        C  0.70162116  0.41564027  0.17692852     0.16700
C498        C  0.67868409  0.44214897  0.18055062    -0.32300
C499        C  0.64226209  0.43135780  0.18159130     0.21100
C500        C  0.62943010  0.39564146  0.18030110     0.03300
C501        C  0.65233159  0.36914038  0.17657992    -0.22000
C502        C  0.68867134  0.37997977  0.17434368     0.12500
S503        S  0.74659721  0.42332108  0.17621357    -0.05700
C504        C  0.74797379  0.37810690  0.17109556    -0.09100
C505        C  0.71521844  0.35823627  0.17079229    -0.25800
S506        S  0.58454541  0.38786852  0.18109428    -0.02900
C507        C  0.58269544  0.43327669  0.18117367    -0.16400
C508        C  0.61554559  0.45318424  0.18200799    -0.14400
H509        H  0.68878327  0.47000702  0.18171390     0.21000
H510        H  0.64220625  0.34129854  0.17492552     0.17000
H511        H  0.71121303  0.32946997  0.17026191     0.19500
H512        H  0.61963378  0.48195290  0.18115288     0.12900
C513        C  0.90524700  0.19741580  0.03989418     0.16700
C514        C  0.93207752  0.17495560  0.04503054    -0.32300
C515        C  0.92218473  0.13912471  0.05664129     0.21100
C516        C  0.88718357  0.12621316  0.06346864     0.03300
C517        C  0.86034955  0.14892838  0.05943190    -0.22000
C518        C  0.87015906  0.18474583  0.04711478     0.12500
S519        S  0.91190876  0.24136018  0.02441239    -0.05700
C520        C  0.88792522  0.23726988  0.37058875    -0.09100
C521        C  0.87175901  0.20843343  0.39719621    -0.25800
S522        S  0.88083862  0.06839686  0.39535516    -0.02900
C523        C  0.92523136  0.07944213  0.06513140    -0.16400
C524        C  0.94410084  0.11265297  0.05845596    -0.14400
H525        H  0.95941165  0.18477358  0.03887229     0.21000
H526        H  0.85380116  0.13692037  0.42860594     0.17000
H527        H  0.85080039  0.21031574  0.42263374     0.19500
H528        H  0.97207481  0.11694029  0.05111577     0.12900
C529        C  0.69052774  0.38744529  0.35988933     0.16700
C530        C  0.65467159  0.38324317  0.34593326    -0.32300
C531        C  0.63325103  0.40833939  0.36264658     0.21100
C532        C  0.63669186  0.42305295  0.05480142     0.03300
C533        C  0.67219109  0.43606495  0.06239276    -0.22000
C534        C  0.69789256  0.41384945  0.05101025     0.12500
S535        S  0.72190188  0.36316550  0.33793569    -0.05700
C536        C  0.75311583  0.39012602  0.37059048    -0.09100
C537        C  0.73385435  0.42253237  0.05403170    -0.25800
S538        S  0.60229635  0.44755557  0.06192098    -0.02900
C539        C  0.58708215  0.44098629  0.36943953    -0.16400
C540        C  0.59849665  0.41075347  0.34982877    -0.14400
H541        H  0.64433918  0.36242162  0.32123387     0.21000
H542        H  0.67949704  0.46277410  0.07554692     0.17000
H543        H  0.74671522  0.44795726  0.06598872     0.19500
H544        H  0.58288279  0.39271266  0.32556730     0.12900
C545        C  0.86863202  0.36856784  0.63491786     0.30800
C546        C  0.87203666  0.36483255  0.40956796     0.30800
C547        C  0.90316555  0.38171239  0.66319780    -0.05400
C548        C  0.84210861  0.39136671  0.65871966    -0.06200
C549        C  0.85876771  0.33238013  0.66132933    -0.06000
C550        C  0.90650142  0.37831235  0.38272018    -0.03400
C551        C  0.84667019  0.38742265  0.38210612    -0.06200
C552        C  0.86274384  0.32720158  0.38560288    -0.06100
C553        C  0.93855919  0.39604320  0.39695389    -0.31400
N554        N  0.95721560  0.40706918  0.35698952     0.15100
C555        C  0.93530539  0.39914021  0.64997043    -0.31400
H556        H  0.94335792  0.40484263  0.61320738     0.17000
C557        C  0.81544234  0.39703189  0.39910064    -0.30400
N558        N  0.79410153  0.41669237  0.67973701     0.13800
C559        C  0.81287700  0.40700973  0.64163664    -0.30400
C560        C  0.86605427  0.29312536  0.40405639    -0.30700
N561        N  0.85055303  0.27535463  0.68600907     0.14300
H562        H  0.86575663  0.28532445  0.44184742     0.16900
C563        C  0.85404317  0.29741424  0.64667370    -0.30700
H564        H  0.85508816  0.28867394  0.60960272     0.16900
H565        H  0.80413283  0.40827856  0.60419226     0.16900
H566        H  0.94651791  0.40247789  0.43387813     0.17000
H567        H  0.81003760  0.40317755  0.43620403     0.16900
C568        C  0.87116434  0.36670560  0.47044665     0.30800
C569        C  0.87013678  0.36862496  0.57435463     0.30800
C570        C  0.87562861  0.40408644  0.49478128    -0.05400
C571        C  0.83703961  0.34930161  0.49624548    -0.06200
C572        C  0.90007863  0.34883108  0.49931664    -0.06000
C573        C  0.87515260  0.40512715  0.54660892    -0.05400
C574        C  0.83719445  0.35033608  0.54755904    -0.06200
C575        C  0.89917429  0.34926892  0.55077560    -0.06100
C576        C  0.89421457  0.43712996  0.55947217    -0.31400
N577        N  0.90660934  0.45507425  0.51920301     0.15100
C578        C  0.89467029  0.43549094  0.48001759    -0.31400
H579        H  0.90253775  0.44159200  0.44332603     0.17000
C580        C  0.80305164  0.34190380  0.56197922    -0.30400
N581        N  0.78125250  0.33748808  0.52256313     0.13800
C582        C  0.80169092  0.34052600  0.48243985    -0.30400
C583        C  0.91792625  0.32213468  0.56697913    -0.30700
N584        N  0.93034998  0.30565398  0.52838431     0.14300
H585        H  0.91921783  0.31271175  0.60400856     0.16900
C586        C  0.92067084  0.32262469  0.48742619    -0.30700
H587        H  0.92495953  0.31405727  0.45107529     0.16900
H588        H  0.79109617  0.34010724  0.44584968     0.16900
H589        H  0.90167977  0.44477458  0.59610052     0.17000
H590        H  0.79415585  0.34294983  0.59881970     0.16900
C591        C  0.51874369  0.88320386  0.63398800     0.30800
C592        C  0.51992016  0.88225408  0.40583761     0.30800
C593        C  0.52053025  0.91963832  0.32696086    -0.05400
C594        C  0.48827779  0.86304764  0.32698647    -0.06200
C595        C  0.55168112  0.86819663  0.32847005    -0.06000
C596        C  0.52070699  0.91946839  0.37923034    -0.05400
C597        C  0.48818704  0.86223711  0.37837814    -0.06200
C598        C  0.55090272  0.86667518  0.38029172    -0.06100
C599        C  0.50504439  0.94952568  0.39156739    -0.31400
N600        N  0.49491603  0.96687065  0.35095038     0.15100
C601        C  0.50644116  0.95062008  0.64405383    -0.31400
H602        H  0.49859964  0.95601382  0.60723156     0.17000
C603        C  0.46214250  0.83602922  0.39140284    -0.30400
N604        N  0.44741964  0.82040738  0.35068095     0.13800
C605        C  0.46225455  0.83806501  0.64595701    -0.30400
C606        C  0.58488371  0.86276544  0.39658990    -0.30700
N607        N  0.60700747  0.86482373  0.35864038     0.14300
H608        H  0.59365740  0.86240269  0.43402601     0.16900
C609        C  0.58092526  0.85709615  0.65077315    -0.30700
H610        H  0.59102560  0.85698340  0.61447470     0.16900
H611        H  0.46003553  0.82736776  0.60978640     0.16900
H612        H  0.49814721  0.95599517  0.42783309     0.17000
H613        H  0.45783207  0.82566269  0.42765354     0.16900
C614        C  0.51881586  0.88012592  0.57241728     0.30800
C615        C  0.51956847  0.88039275  0.46728293     0.30800
C616        C  0.48753898  0.89471735  0.54414664    -0.05400
C617        C  0.55061928  0.90134946  0.54660752    -0.06200
C618        C  0.51811718  0.84281211  0.54593655    -0.06000
C619        C  0.48776589  0.89464744  0.49265232    -0.05400
C620        C  0.55097597  0.90178088  0.49518954    -0.06200
C621        C  0.51889078  0.84324021  0.49406530    -0.06100
C622        C  0.45730750  0.90855680  0.47711493    -0.31400
N623        N  0.43947051  0.91830669  0.51626333     0.15100
C624        C  0.45711337  0.90889050  0.55702465    -0.31400
H625        H  0.44912974  0.91307569  0.59365755     0.17000
C626        C  0.58334139  0.91961569  0.48241377    -0.30400
N627        N  0.60308681  0.92844347  0.52314028     0.13800
C628        C  0.58287267  0.91827850  0.56210055    -0.30400
C629        C  0.51418685  0.80774677  0.47944075    -0.30700
N630        N  0.50913879  0.78563724  0.51869855     0.14300
H631        H  0.51294701  0.79870330  0.44231767     0.16900
C632        C  0.51213971  0.80667479  0.55905646    -0.30700
H633        H  0.50963080  0.79648335  0.59556825     0.16900
H634        H  0.59168527  0.92128438  0.59946629     0.16900
H635        H  0.44939746  0.91229716  0.43977791     0.17000
H636        H  0.59249007  0.92427497  0.44588778     0.16900
O637        O  0.02243842  0.99264612  0.63692931    -0.80100
O638        O  0.87834674  0.93249837  0.38774750    -0.64800
O639        O  0.97508821  0.96205894  0.34866697    -1.11400
C640        C  0.98621676  0.84053298  0.36454653     1.06800
O641        O  0.88321676  0.87915359  0.42338898    -0.78000
O642        O  0.95315341  0.90636347  0.44258807    -0.65600
Ni643      Ni  0.97554100  0.01062851  0.64821385     1.34900
C644        C  0.98064236  0.92608147  0.43274715     0.85500
O645        O  0.91566122  0.99738582  0.37534986    -0.78500
O646        O  0.93516187  0.03496115  0.66273959    -0.88800
C647        C  0.86483548  0.90357272  0.40735167     0.85100
O648        O  0.94425456  0.99141624  0.59831502    -0.67000
O649        O  0.97642784  0.85003125  0.40546541    -0.86300
C650        C  0.92579332  0.96261166  0.60585365     0.85900
C651        C  0.92283653  0.02241822  0.34462490     1.07500
H652        H  0.90537682  0.89916112  0.66240779     0.39300
O653        O  0.93675478  0.89893859  0.36219987    -1.09000
O654        O  0.00261840  0.91533564  0.40416525    -0.65600
Ni655      Ni  0.98501061  0.91236621  0.33960372     1.26300
O656        O  0.90059073  0.96218817  0.63491724    -0.65800
O657        O  0.99269745  0.86341327  0.33124603    -0.78100
C658        C  0.04859611  0.95616273  0.30915084     0.85300
O659        O  0.03198995  0.92606129  0.31919326    -0.65300
Ni660      Ni  0.93128676  0.86633734  0.41386315     1.27400
Ni661      Ni  0.92575525  0.94817360  0.36971002     1.26100
H662        H  0.99320064  0.97375013  0.36870480     0.39900
O663        O  0.05241828  0.99919705  0.51950471    -0.80100
O664        O  0.88399482  0.98112755  0.49495403    -0.64800
O665        O  0.98385934  0.98744447  0.53065835    -1.11400
C666        C  0.95952056  0.85812211  0.51734067     1.06800
O667        O  0.86819401  0.93651392  0.54719903    -0.78000
O668        O  0.92352005  0.90220484  0.58957773    -0.65600
Ni669      Ni  0.01432367  0.01915550  0.49124041     1.34900
C670        C  0.94245788  0.93060632  0.59848787     0.85500
O671        O  0.93605592  0.03585638  0.51506792    -0.78500
O672        O  0.97760107  0.04317978  0.46110342    -0.88800
C673        C  0.86028065  0.96170957  0.51882824     0.85100
O674        O  0.01139322  0.98182364  0.44805453    -0.67000
O675        O  0.92647316  0.86215165  0.51611989    -0.86300
C676        C  0.98167421  0.96397162  0.44550303     0.85900
C677        C  0.95593952  0.05616534  0.48815182     1.07500
H678        H  0.91993015  0.93540708  0.47896888     0.39300
O679        O  0.93289246  0.93581096  0.50918882    -1.09000
O680        O  0.97483802  0.93259355  0.58866365    -0.65600
Ni681      Ni  0.98467147  0.93633365  0.52273289     1.26300
O682        O  0.95350829  0.98024248  0.44966444    -0.65800
O683        O  0.98420888  0.88421509  0.52047620    -0.78100
C684        C  0.05955510  0.96824503  0.53157378     0.85300
O685        O  0.03642805  0.94056443  0.53455018    -0.65300
Ni686      Ni  0.89859612  0.90021566  0.53175757     1.27400
Ni687      Ni  0.93414066  0.98498052  0.51348749     1.26100
H688        H  0.99290460  0.99426313  0.56213387     0.39900
C689        C  0.02064998  0.52523782  0.63510050     0.30800
C690        C  0.02436611  0.52188559  0.40694292     0.30800
C691        C  0.01806609  0.48379894  0.32982001    -0.05400
C692        C  0.06058605  0.53533283  0.33007645    -0.06200
C693        C  0.99889275  0.54121028  0.32561100    -0.06000
C694        C  0.01748345  0.48478542  0.38178078    -0.05400
C695        C  0.05943789  0.53649712  0.38161693    -0.06200
C696        C  0.99766048  0.54218707  0.37713314    -0.06100
C697        C  0.99824800  0.45351195  0.39623075    -0.31400
N698        N  0.98614875  0.43425053  0.35673711     0.15100
C699        C  0.99454913  0.45714644  0.65025536    -0.31400
H700        H  0.98775756  0.44923119  0.61352624     0.17000
C701        C  0.09382062  0.54543893  0.39777813    -0.30400
N702        N  0.11609303  0.54838226  0.35954696     0.13800
C703        C  0.09595312  0.54302811  0.31822191    -0.30400
C704        C  0.97801064  0.56947652  0.38781614    -0.30700
N705        N  0.96891955  0.58566914  0.34595925     0.14300
H706        H  0.97443374  0.57973565  0.42355852     0.16900
C707        C  0.98045595  0.56791788  0.30812034    -0.30700
H708        H  0.97253215  0.58092863  0.60369532     0.16900
H709        H  0.09893134  0.55099436  0.61258690     0.16900
H710        H  0.99072356  0.44709025  0.43296985     0.17000
H711        H  0.10229010  0.54729852  0.43536298     0.16900
C712        C  0.02298878  0.52351464  0.46855532     0.30800
C713        C  0.02130074  0.52516649  0.57371256     0.30800
C714        C  0.98746746  0.51012409  0.49399426    -0.05400
C715        C  0.04899204  0.50191349  0.49828090    -0.06200
C716        C  0.03104383  0.56043101  0.49406224    -0.06000
C717        C  0.98677525  0.51110282  0.54557171    -0.05400
C718        C  0.04787410  0.50259289  0.54983834    -0.06200
C719        C  0.03040507  0.56119807  0.54584845    -0.06100
C720        C  0.95425538  0.49459654  0.55904182    -0.31400
N721        N  0.93567761  0.48218282  0.51888189     0.15100
C722        C  0.95510904  0.49278990  0.47922365    -0.31400
H723        H  0.94737979  0.48636470  0.44222358     0.17000
C724        C  0.07749162  0.48805458  0.56711360    -0.30400
N725        N  0.09720815  0.47973329  0.52924867     0.13800
C726        C  0.07969347  0.48734618  0.48745337    -0.30400
C727        C  0.03260765  0.59674737  0.55851916    -0.30700
N728        N  0.03348740  0.61723810  0.51776211     0.14300
H729        H  0.03107227  0.60701533  0.59474890     0.16900
C730        C  0.03320090  0.59561646  0.47863419    -0.30700
H731        H  0.03222583  0.60483223  0.44147513     0.16900
H732        H  0.08950239  0.48432923  0.45147054     0.16900
H733        H  0.94586402  0.48988403  0.59588033     0.17000
H734        H  0.08553672  0.48622044  0.60475743     0.16900
C735        C  0.38789775  0.02554518  0.39875461     0.30800
C736        C  0.38671724  0.02536049  0.62693240     0.30800
C737        C  0.42131791  0.01565362  0.37283321    -0.05400
C738        C  0.35909235  0.99983126  0.37221412    -0.06200
C739        C  0.38300000  0.06103748  0.37104318    -0.06000
C740        C  0.41890909  0.01230527  0.65489599    -0.05400
C741        C  0.35533607  0.00247238  0.65281090    -0.06200
C742        C  0.38564378  0.06180927  0.65338415    -0.06100
C743        C  0.44999412  0.99950232  0.64165711    -0.31400
N744        N  0.46892401  0.99118310  0.34926890     0.15100
C745        C  0.45138754  0.00126892  0.38837177    -0.31400
H746        H  0.45838341  0.99605646  0.42567002     0.17000
C747        C  0.32052679  0.99150464  0.63822100    -0.30400
N748        N  0.30554969  0.97694271  0.34548506     0.13800
C749        C  0.32551900  0.98623079  0.38553094    -0.30400
C750        C  0.38755882  0.09744026  0.63947638    -0.30700
N751        N  0.38305962  0.11695090  0.34302635     0.14300
H752        H  0.38950849  0.10759855  0.60272770     0.16900
C753        C  0.38462046  0.09659260  0.38387661    -0.30700
H754        H  0.38851652  0.10701775  0.42019208     0.16900
H755        H  0.31517803  0.98615941  0.42163813     0.16900
H756        H  0.45799680  0.99570153  0.60493002     0.17000
H757        H  0.31040790  0.99079586  0.60136133     0.16900
C758        C  0.38803542  0.02462178  0.46037326     0.30800
C759        C  0.38761426  0.02461343  0.56532284     0.30800
C760        C  0.38521263  0.98770058  0.48701294    -0.05400
C761        C  0.42074190  0.04313747  0.48803854    -0.06200
C762        C  0.35835158  0.04210133  0.48570541    -0.06000
C763        C  0.38484201  0.98765657  0.53942905    -0.05400
C764        C  0.42057472  0.04285398  0.53962656    -0.06200
C765        C  0.35863898  0.04271632  0.53735557    -0.06100
C766        C  0.40103199  0.95807928  0.55390290    -0.31400
N767        N  0.41205317  0.94105965  0.51485082     0.15100
C768        C  0.40166464  0.95826064  0.47451620    -0.31400
H769        H  0.40971775  0.95284044  0.43837023     0.17000
C770        C  0.44828179  0.06639340  0.55475394    -0.30400
N771        N  0.46468888  0.08193639  0.51540635     0.13800
C772        C  0.44840628  0.06728089  0.47477209    -0.30400
C773        C  0.32577285  0.05026754  0.55070569    -0.30700
N774        N  0.30485162  0.05125168  0.51067616     0.14300
H775        H  0.31622375  0.05031220  0.58727343     0.16900
C776        C  0.32447164  0.04739048  0.47108992    -0.30700
H777        H  0.31368311  0.04489254  0.43463790     0.16900
H778        H  0.45331581  0.07635331  0.43805047     0.16900
H779        H  0.40837482  0.95233108  0.59082126     0.17000
H780        H  0.45304661  0.07483569  0.59185193     0.16900
O781        O  0.40667387  0.38962490  0.36039409    -0.80100
O782        O  0.45698072  0.55544050  0.38861448    -0.64800
O783        O  0.42798514  0.46220897  0.34346006    -1.11400
C784        C  0.54110653  0.45149529  0.67376569     1.06800
O785        O  0.48279728  0.55193153  0.61220890    -0.78000
O786        O  0.46331021  0.47792393  0.59763693    -0.65600
Ni787      Ni  0.38673964  0.43411232  0.36798432     1.34900
C788        C  0.45617044  0.44531282  0.61002638     0.85500
O789        O  0.39459943  0.52407960  0.35778173    -0.78500
O790        O  0.35997225  0.47423675  0.37555745    -0.88800
C791        C  0.47693716  0.57615766  0.36253860     0.85100
O792        O  0.40528868  0.44066486  0.43006073    -0.67000
O793        O  0.53317372  0.46872855  0.63536746    -0.86300
C794        C  0.43425527  0.45943361  0.43472332     0.85900
C795        C  0.36433953  0.50736390  0.36601388     1.07500
H796        H  0.49683275  0.50399371  0.40489793     0.39300
O797        O  0.48893446  0.49683896  0.37282408    -1.09000
O798        O  0.47611519  0.43166408  0.63678260    -0.65600
Ni799      Ni  0.47677883  0.44643422  0.35665597     1.26300
O800        O  0.43421417  0.49253084  0.42803929    -0.65800
O801        O  0.52443301  0.43527555  0.37087610    -0.78100
C802        C  0.43441159  0.37711250  0.34584535     0.85300
O803        O  0.46349936  0.39670518  0.33873992    -0.65300
Ni804      Ni  0.50384756  0.50748108  0.62414240     1.27400
Ni805      Ni  0.44201138  0.50969946  0.36532177     1.26100
H806        H  0.40440193  0.45771109  0.65007398     0.39900
O807        O  0.42259633  0.32928951  0.54082207    -0.80100
O808        O  0.42573517  0.49855525  0.52240372    -0.64800
O809        O  0.41225065  0.39464152  0.49708468    -1.11400
C810        C  0.53913877  0.40037879  0.50278097     1.06800
O811        O  0.48231745  0.50993018  0.50137020    -0.78000
O812        O  0.49666313  0.45473994  0.44455628    -0.65600
Ni813      Ni  0.38935970  0.36562345  0.54576156     1.34900
C814        C  0.46602326  0.44063055  0.43296703     0.85500
O815        O  0.36738976  0.44699958  0.50134359    -0.78500
O816        O  0.35136174  0.39802284  0.54802739    -0.88800
C817        C  0.45316542  0.52086923  0.51294846     0.85100
O818        O  0.42150534  0.38938491  0.59367435    -0.67000
O819        O  0.54007896  0.43290522  0.51478607    -0.86300
C820        C  0.42523009  0.42298081  0.59366981     0.85900
C821        C  0.34381018  0.42574560  0.52325017     1.07500
H822        H  0.47952565  0.42250246  0.54738169     0.39300
O823        O  0.46874566  0.43511744  0.52187306    -1.09000
O824        O  0.46170181  0.40735694  0.43205051    -0.65600
Ni825      Ni  0.46104181  0.38849527  0.49458317     1.26300
O826        O  0.40402014  0.43880771  0.57158278    -0.65800
O827        O  0.51067370  0.38135153  0.49061720    -0.78100
C828        C  0.44034785  0.32057570  0.50441700     0.85300
O829        O  0.44979016  0.34261396  0.47128381    -0.65300
Ni830      Ni  0.50798090  0.46884778  0.50766254     1.27400
Ni831      Ni  0.41807768  0.44551501  0.50994470     1.26100
H832        H  0.40034787  0.38733078  0.46703717     0.39900
C833        C  0.49154863  0.17722637  0.53977775     0.16700
C834        C  0.48527098  0.20936495  0.56075347    -0.32300
C835        C  0.47618839  0.23640867  0.52958794     0.21100
C836        C  0.47674238  0.23281862  0.47965787     0.03300
C837        C  0.48476912  0.20132338  0.45859011    -0.22000
C838        C  0.49063516  0.17316625  0.48987760     0.12500
S839        S  0.49118264  0.13860811  0.57154553    -0.05700
C840        C  0.48499937  0.11628214  0.51724689    -0.09100
C841        C  0.48851912  0.13832358  0.47668536    -0.25800
S842        S  0.46255109  0.26742199  0.44808171    -0.02900
C843        C  0.45373460  0.28591471  0.50245068    -0.16400
C844        C  0.46286013  0.26695879  0.54300650    -0.14400
H845        H  0.48365374  0.21172966  0.59963315     0.21000
H846        H  0.48269550  0.19769788  0.41970605     0.17000
H847        H  0.48371074  0.12980085  0.43963400     0.19500
H848        H  0.45954722  0.27489582  0.58007052     0.12900
C849        C  0.43730553  0.27452395  0.33224103     0.16700
C850        C  0.44603081  0.23910820  0.33107963    -0.32300
C851        C  0.41827879  0.21111525  0.33406101     0.21100
C852        C  0.38057358  0.21799928  0.69513901     0.03300
C853        C  0.37013764  0.25174720  0.70561842    -0.22000
C854        C  0.40239536  0.28115341  0.33534585     0.12500
S855        S  0.46676458  0.31265178  0.33364844    -0.05700
C856        C  0.43151964  0.33764421  0.33867711    -0.09100
C857        C  0.39066098  0.31665923  0.71264840    -0.25800
S858        S  0.35379772  0.17845767  0.69800075    -0.02900
C859        C  0.38814668  0.15536572  0.34054538    -0.16400
C860        C  0.42116099  0.17493065  0.33616789    -0.14400
H861        H  0.47330141  0.23362240  0.32955444     0.21000
H862        H  0.34326197  0.25454559  0.71569634     0.17000
H863        H  0.36559415  0.32523044  0.72262786     0.19500
H864        H  0.44586423  0.16326768  0.33503008     0.12900
C865        C  0.24941356  0.45183669  0.49971741     0.16700
C866        C  0.21827789  0.46279337  0.47921150    -0.32300
C867        C  0.18877713  0.46283423  0.50886998     0.21100
C868        C  0.19019196  0.45277716  0.55720291     0.03300
C869        C  0.22124389  0.44103677  0.57762252    -0.22000
C870        C  0.25075352  0.44053369  0.54757137     0.12500
S871        S  0.28808536  0.45077574  0.46957955    -0.05700
C872        C  0.30656927  0.43432743  0.52144442    -0.09100
C873        C  0.28338437  0.42981384  0.56004936    -0.25800
S874        S  0.15148758  0.45584274  0.58702027    -0.02900
C875        C  0.13291900  0.46981955  0.53326043    -0.16400
C876        C  0.15612461  0.47218229  0.49488539    -0.14400
H877        H  0.21701793  0.47076117  0.44150476     0.21000
H878        H  0.22234700  0.43267379  0.61520217     0.17000
H879        H  0.29025661  0.41988977  0.59554275     0.19500
H880        H  0.14962088  0.48036463  0.45849213     0.12900
C881        C  0.27436815  0.54105317  0.33533223     0.16700
C882        C  0.24193490  0.54629168  0.31191616    -0.32300
C883        C  0.21197461  0.54793718  0.34082443     0.21100
C884        C  0.21476114  0.54576468  0.39086588     0.03300
C885        C  0.24357093  0.55406398  0.73489397    -0.22000
C886        C  0.27650715  0.53719984  0.38521249     0.12500
S887        S  0.31315783  0.53575753  0.30694180    -0.05700
C888        C  0.33187720  0.52603359  0.36234967    -0.09100
C889        C  0.30920619  0.52837202  0.40080784    -0.25800
S890        S  0.17286538  0.56241581  0.74512955    -0.02900
C891        C  0.15447660  0.55029620  0.36402597    -0.16400
C892        C  0.17744277  0.55040244  0.32507328    -0.14400
H893        H  0.23991463  0.54785332  0.27278141     0.21000
H894        H  0.24755217  0.55554114  0.77381807     0.17000
H895        H  0.31236437  0.53639496  0.75683411     0.19500
H896        H  0.16935517  0.55114838  0.28729736     0.12900
C897        C  0.15928730  0.97286969  0.52201093     0.16700
C898        C  0.19347866  0.97291541  0.50376073    -0.32300
C899        C  0.21757334  0.00334260  0.51213885     0.21100
C900        C  0.20830433  0.03205750  0.53803233     0.03300
C901        C  0.17461215  0.03172782  0.55666502    -0.22000
C902        C  0.15065855  0.00172874  0.54786242     0.12500
S903        S  0.12398403  0.94131548  0.51080152    -0.05700
C904        C  0.09766032  0.96778656  0.54115606    -0.09100
C905        C  0.11608502  0.99874804  0.55909396    -0.25800
S906        S  0.24102559  0.06619756  0.54540286    -0.02900
C907        C  0.26755173  0.04193479  0.51255149    -0.16400
C908        C  0.25183234  0.00892277  0.49743400    -0.14400
H909        H  0.20066284  0.95084411  0.48280110     0.21000
H910        H  0.16708917  0.05425764  0.57640661     0.17000
H911        H  0.10379217  0.02017414  0.57536575     0.19500
H912        H  0.26534075  0.98946643  0.47880052     0.12900
C913        C  0.96902052  0.75707925  0.51383112     0.16700
C914        C  0.96313463  0.71972314  0.51377747    -0.32300
C915        C  0.99270591  0.70043927  0.51493920     0.21100
C916        C  0.02677476  0.71761246  0.51635967     0.03300
C917        C  0.03264127  0.75508170  0.51673861    -0.22000
C918        C  0.00297960  0.77442382  0.51540147     0.12500
S919        S  0.93654782  0.78500151  0.51282078    -0.05700
C920        C  0.96883152  0.82084981  0.51471649    -0.09100
C921        C  0.00307718  0.81102003  0.51593431    -0.25800
S922        S  0.05912325  0.68918902  0.51776861    -0.02900
C923        C  0.02637111  0.65395689  0.51622334    -0.16400
C924        C  0.99230818  0.66394545  0.51494804    -0.14400
H925        H  0.93656207  0.70623910  0.51293483     0.21000
H926        H  0.05919579  0.76857479  0.51806590     0.17000
H927        H  0.02676205  0.82960110  0.51768254     0.19500
H928        H  0.96856514  0.64540668  0.51425628     0.12900
C929        C  0.20704208  0.98675584  0.34637880     0.16700
C930        C  0.17349355  0.99813032  0.35243052    -0.32300
C931        C  0.14425715  0.97754918  0.33155240     0.21100
C932        C  0.14820452  0.94641268  0.30711894     0.03300
C933        C  0.18188629  0.93589149  0.29925748    -0.22000
C934        C  0.21122083  0.95688985  0.31919048     0.12500
S935        S  0.24553253  0.00713795  0.37064849    -0.05700
C936        C  0.26761429  0.97538282  0.34342091    -0.09100
C937        C  0.24612368  0.95075922  0.31625654    -0.25800
S938        S  0.10921757  0.92319768  0.28900611    -0.02900
C939        C  0.08751267  0.95755235  0.31026589    -0.16400
C940        C  0.10951537  0.98438185  0.33283680    -0.14400
H941        H  0.16421370  0.03688038  0.69517894     0.21000
H942        H  0.18503712  0.91207511  0.27908616     0.17000
H943        H  0.25549353  0.92932437  0.29617425     0.19500
H944        H  0.10046258  0.00717591  0.35025002     0.12900
C945        C  0.95497668  0.68137085  0.36503031     0.16700
C946        C  0.94968984  0.71361990  0.38609109    -0.32300
C947        C  0.96771734  0.74444679  0.36659874     0.21100
C948        C  0.98936847  0.74378597  0.32695368     0.03300
C949        C  0.99454551  0.71139789  0.30553978    -0.22000
C950        C  0.97689515  0.68033327  0.32569489     0.12500
S951        S  0.93868781  0.64083286  0.38727090    -0.05700
C952        C  0.96201616  0.62208877  0.34345364    -0.09100
C953        C  0.98064223  0.64629470  0.31277521    -0.25800
S954        S  0.00782737  0.78490818  0.30840385    -0.02900
C955        C  0.98674587  0.80253531  0.35569892    -0.16400
C956        C  0.96633610  0.77786642  0.38318509    -0.14400
H957        H  0.93288486  0.71459985  0.41708985     0.21000
H958        H  0.03367968  0.72020128  0.68354408     0.17000
H959        H  0.01730371  0.64932795  0.69522108     0.19500
H960        H  0.95006183  0.78427967  0.41274063     0.12900
C961        C  0.44961019  0.62610276  0.52164197     0.16700
C962        C  0.44326375  0.66185378  0.53165769    -0.32300
C963        C  0.47046788  0.69011412  0.52255843     0.21100
C964        C  0.50193739  0.68287959  0.50257107     0.03300
C965        C  0.50814755  0.64751093  0.49260032    -0.22000
C966        C  0.48166527  0.61947390  0.50323135     0.12500
S967        S  0.42143063  0.58715505  0.53168457    -0.05700
C968        C  0.45375597  0.56155019  0.51227604    -0.09100
C969        C  0.48402947  0.58340914  0.49777795    -0.25800
S970        S  0.53128294  0.72016549  0.49232496    -0.02900
C971        C  0.50194050  0.74663272  0.51677315    -0.16400
C972        C  0.47044373  0.72666648  0.53130505    -0.14400
H973        H  0.41847280  0.66734250  0.54685132     0.21000
H974        H  0.53300547  0.64197284  0.47760740     0.17000
H975        H  0.50751722  0.57329534  0.48443579     0.19500
H976        H  0.44852045  0.73828991  0.54679990     0.12900
C977        C  0.70201268  0.95395189  0.54906170     0.16700
C978        C  0.73594663  0.95792382  0.57059113    -0.32300
C979        C  0.76515569  0.96287007  0.54008773     0.21100
C980        C  0.76088416  0.96559132  0.49029083     0.03300
C981        C  0.72677294  0.96121131  0.46855966    -0.22000
C982        C  0.69742830  0.95466323  0.49914606     0.12500
S983        S  0.66363372  0.94563859  0.58016266    -0.05700
C984        C  0.64057809  0.94107962  0.52561631    -0.09100
C985        C  0.66222975  0.94710810  0.48534627    -0.25800
S986        S  0.80018089  0.97165980  0.46012377    -0.02900
C987        C  0.82238249  0.96779605  0.51481240    -0.16400
C988        C  0.80011277  0.96368383  0.55419658    -0.14400
H989        H  0.73946642  0.95620697  0.60953971     0.21000
H990        H  0.72332853  0.96180819  0.42953706     0.17000
H991        H  0.65309036  0.94496972  0.44800693     0.19500
H992        H  0.80901921  0.95987810  0.59121873     0.12900
C993        C  0.42827953  0.72199584  0.37200060     0.16700
C994        C  0.42645541  0.68832574  0.39421533    -0.32300
C995        C  0.44458810  0.66261979  0.37194759     0.21100
C996        C  0.46327633  0.67015982  0.32985921     0.03300
C997        C  0.46345537  0.70268562  0.30689571    -0.22000
C998        C  0.44543958  0.72809685  0.32851196     0.12500
S999        S  0.41635815  0.75978966  0.39774499    -0.05700
C1000       C  0.43487488  0.78333599  0.34883595    -0.09100
C1001       C  0.44783608  0.76238897  0.31428814    -0.25800
S1002       S  0.48674490  0.63791688  0.31031638    -0.02900
C1003       C  0.47055494  0.61305800  0.35862300    -0.16400
C1004       C  0.44811162  0.62905864  0.38832406    -0.14400
H1005       H  0.41360224  0.68312582  0.42857018     0.21000
H1006       H  0.52453910  0.71438941  0.65815764     0.17000
H1007       H  0.46353198  0.77231193  0.28404144     0.19500
H1008       H  0.43496163  0.61672810  0.41953018     0.12900
C1009       C  0.70686516  0.89325852  0.35805865     0.16700
C1010       C  0.74110422  0.90903613  0.34815746    -0.32300
C1011       C  0.76917265  0.89996175  0.37799603     0.21100
C1012       C  0.76353533  0.87633177  0.41640085     0.03300
C1013       C  0.72164842  0.86054836  0.76340193    -0.22000
C1014       C  0.70083279  0.86976900  0.39657333     0.12500
S1015       S  0.66963866  0.90062368  0.32537454    -0.05700
C1016       C  0.64521513  0.87133630  0.36302437    -0.09100
C1017       C  0.66536629  0.85736560  0.39999294    -0.25800
S1018       S  0.79363734  0.87599487  0.78410757    -0.02900
C1019       C  0.82548536  0.89724207  0.40798891    -0.16400
C1020       C  0.80434482  0.91200753  0.37310432    -0.14400
H1021       H  0.74570905  0.92757759  0.31827549     0.21000
H1022       H  0.71673538  0.85225019  0.80052456     0.17000
H1023       H  0.64741239  0.84387191  0.77128551     0.19500
H1024       H  0.81433878  0.93008563  0.34467563     0.12900
C1025       C  0.96076467  0.15764627  0.47945166     0.16700
C1026       C  0.96256548  0.19315532  0.46410201    -0.32300
C1027       C  0.95509650  0.21848266  0.49803172     0.21100
C1028       C  0.94769237  0.20918433  0.54572369     0.03300
C1029       C  0.94607431  0.17363448  0.56121592    -0.22000
C1030       C  0.95178750  0.14806210  0.52657453     0.12500
S1031       S  0.96775294  0.12286398  0.44328388    -0.05700
C1032       C  0.95584780  0.09487119  0.49097558    -0.09100
C1033       C  0.94870185  0.11194322  0.53332037    -0.25800
S1034       S  0.93808405  0.24373744  0.58060264    -0.02900
C1035       C  0.94221049  0.27070453  0.52975112    -0.16400
C1036       C  0.95216249  0.25365451  0.48866226    -0.14400
H1037       H  0.96836768  0.20055378  0.42689151     0.21000
H1038       H  0.93950861  0.16612309  0.59815134     0.17000
H1039       H  0.94209243  0.09862447  0.56731031     0.19500
H1040       H  0.95542029  0.26568092  0.45310058     0.12900
C1041       C  0.68868932  0.36357012  0.54154459     0.16700
C1042       C  0.66010489  0.38033125  0.55741528    -0.32300
C1043       C  0.62914244  0.37725800  0.52901532     0.21100
C1044       C  0.62599455  0.35698222  0.48733324     0.03300
C1045       C  0.65500877  0.34028530  0.47090010    -0.22000
C1046       C  0.68677143  0.34457482  0.49870624     0.12500
S1047       S  0.72847187  0.36602952  0.57094003    -0.05700
C1048       C  0.74409622  0.34228695  0.52447054    -0.09100
C1049       C  0.71887400  0.33247479  0.48823839    -0.25800
S1050       S  0.58508861  0.35600050  0.45940012    -0.02900
C1051       C  0.57308114  0.38443685  0.50337643    -0.16400
C1052       C  0.59937510  0.39340335  0.53788034    -0.14400
H1053       H  0.66204696  0.39543138  0.59048566     0.21000
H1054       H  0.65310097  0.32523205  0.43762356     0.17000
H1055       H  0.72387789  0.31803639  0.45588193     0.19500
H1056       H  0.59684685  0.41102444  0.56795473     0.12900
C1057       C  0.90941915  0.18212224  0.34826080     0.16700
C1058       C  0.92437817  0.15373070  0.32749004    -0.32300
C1059       C  0.91332800  0.11916982  0.34365750     0.21100
C1060       C  0.88860514  0.11287170  0.37966454     0.03300
C1061       C  0.87329305  0.14162015  0.40062533    -0.22000
C1062       C  0.88420562  0.17660829  0.38382347     0.12500
S1063       S  0.91888085  0.22528104  0.33076115    -0.05700
C1064       C  0.85126189  0.23692531  0.68374162    -0.09100
C1065       C  0.85068746  0.21372223  0.72373185    -0.25800
S1066       S  0.87278921  0.07813842  0.74793459    -0.02900
C1067       C  0.91099721  0.05851055  0.35247095    -0.16400
C1068       C  0.92594161  0.08855378  0.32806197    -0.14400
H1069       H  0.94385792  0.15843609  0.29947288     0.21000
H1070       H  0.85410729  0.15034243  0.77862678     0.17000
H1071       H  0.84779508  0.22157384  0.76090041     0.19500
H1072       H  0.94633244  0.08824568  0.30144231     0.12900
C1073       C  0.70072159  0.44403357  0.65592564     0.16700
C1074       C  0.67019969  0.45846845  0.63844645    -0.32300
C1075       C  0.63760229  0.44693842  0.66002915     0.21100
C1076       C  0.64693360  0.43600637  0.39248834     0.03300
C1077       C  0.68237104  0.43939327  0.40787084    -0.22000
C1078       C  0.70382546  0.41468965  0.39062664     0.12500
S1079       S  0.74266270  0.45370543  0.63389419    -0.05700
C1080       C  0.75781890  0.42519425  0.67691378    -0.09100
C1081       C  0.73960280  0.41591624  0.39765337    -0.25800
S1082       S  0.61810547  0.46605468  0.40443038    -0.02900
C1083       C  0.57835252  0.44215627  0.67784301    -0.16400
C1084       C  0.60520407  0.45832744  0.64871175    -0.14400
H1085       H  0.67176129  0.47777565  0.60913990     0.21000
H1086       H  0.69316833  0.46139336  0.43037220     0.17000
H1087       H  0.75544698  0.43608841  0.41850867     0.19500
H1088       H  0.60133638  0.47804836  0.62095313     0.12900
C1089       C  0.86675302  0.36757336  0.96786737     0.30800
C1090       C  0.86653283  0.36864797  0.73916495     0.30800
C1091       C  0.90283866  0.38003989  0.99406904    -0.05400
C1092       C  0.84083219  0.38971574  0.99534548    -0.06200
C1093       C  0.85735695  0.33176095  0.99516283    -0.06000
C1094       C  0.90243027  0.38179238  0.71457153    -0.03400
C1095       C  0.84122335  0.39192479  0.71019344    -0.06200
C1096       C  0.85743589  0.33205321  0.71269446    -0.06100
C1097       C  0.93463318  0.39948036  0.72972542    -0.31400
N1098       N  0.95378006  0.41124627  0.69032152     0.15100
C1099       C  0.93493844  0.39707565  0.97935012    -0.31400
H1100       H  0.94223067  0.40285107  0.94232576     0.17000
C1101       C  0.81205640  0.40936164  0.72114611    -0.30400
N1102       N  0.78894060  0.39870575  0.02984422     0.13800
C1103       C  0.80418124  0.38607021  0.99113233    -0.30400
C1104       C  0.85155815  0.29623081  0.72626291    -0.30700
N1105       N  0.85195604  0.27585660  0.02330473     0.14300
H1106       H  0.85004789  0.28610810  0.76300245     0.16900
C1107       C  0.85371968  0.29629614  0.98251456    -0.30700
H1108       H  0.85542841  0.28584759  0.94649264     0.16900
H1109       H  0.78927418  0.36713865  0.96779769     0.16900
H1110       H  0.94251101  0.40537079  0.76679308     0.17000
H1111       H  0.80334764  0.41516723  0.75685591     0.16900
C1112       C  0.86583079  0.36874679  0.80024907     0.30800
C1113       C  0.86627734  0.36916815  0.90529145     0.30800
C1114       C  0.87858388  0.40455788  0.82689106    -0.05400
C1115       C  0.82992802  0.35705877  0.82569846    -0.06200
C1116       C  0.88921570  0.34386169  0.82727778    -0.06000
C1117       C  0.87933788  0.40450264  0.87858109    -0.05400
C1118       C  0.82981072  0.36177945  0.87736867    -0.06200
C1119       C  0.88900554  0.34300073  0.87874213    -0.06100
C1120       C  0.89569929  0.43728754  0.89264488    -0.31400
N1121       N  0.90653025  0.45659413  0.85267346     0.15100
C1122       C  0.89478407  0.43751396  0.81273987    -0.31400
H1123       H  0.89978166  0.44596019  0.77583505     0.17000
C1124       C  0.79933002  0.37862808  0.88221473    -0.30400
N1125       N  0.77740644  0.37352395  0.84355291     0.13800
C1126       C  0.79571121  0.35954039  0.80856475    -0.30400
C1127       C  0.90756326  0.31448591  0.89188697    -0.30700
N1128       N  0.91761764  0.29806149  0.85132399     0.14300
H1129       H  0.91217532  0.30528237  0.92840055     0.16900
C1130       C  0.90792987  0.31695897  0.81225921    -0.30700
H1131       H  0.91178190  0.30988541  0.77511154     0.16900
H1132       H  0.78627196  0.35582326  0.77162026     0.16900
H1133       H  0.90141762  0.44543329  0.92958514     0.17000
H1134       H  0.79675040  0.40020045  0.90643282     0.16900
C1135       C  0.51596971  0.87892598  0.96697931     0.30800
C1136       C  0.51858694  0.88515318  0.73833942     0.30800
C1137       C  0.52254313  0.92088503  0.65861421    -0.05400
C1138       C  0.48506812  0.86674161  0.65980643    -0.06200
C1139       C  0.54768748  0.86516032  0.66267022    -0.06000
C1140       C  0.52262476  0.92163407  0.71103627    -0.05400
C1141       C  0.48510760  0.86715332  0.71170038    -0.06200
C1142       C  0.54755064  0.86636623  0.71402225    -0.06100
C1143       C  0.50693729  0.95147834  0.72341923    -0.31400
N1144       N  0.49602104  0.96823123  0.68308596     0.15100
C1145       C  0.49897145  0.94604814  0.97815022    -0.31400
H1146       H  0.49480131  0.95396741  0.94100830     0.17000
C1147       C  0.46312358  0.83765926  0.72536873    -0.30400
N1148       N  0.45084575  0.81940021  0.68558541     0.13800
C1149       C  0.47422368  0.81817024  0.97945186    -0.30400
C1150       C  0.58042517  0.85909744  0.73037770    -0.30700
N1151       N  0.60075084  0.85388157  0.69189209     0.14300
H1152       H  0.59001508  0.86148864  0.76744614     0.16900
C1153       C  0.58348812  0.86461617  0.98452087    -0.30700
H1154       H  0.59408338  0.86508827  0.94849498     0.16900
H1155       H  0.47046781  0.80877899  0.94289295     0.16900
H1156       H  0.49920637  0.95708221  0.75967334     0.17000
H1157       H  0.46164481  0.82657660  0.76157180     0.16900
C1158       C  0.51770834  0.88070933  0.90497139     0.30800
C1159       C  0.51866072  0.88428191  0.79962754     0.30800
C1160       C  0.48455803  0.89227488  0.87692066    -0.05400
C1161       C  0.54746669  0.90656017  0.88016589    -0.06200
C1162       C  0.52249581  0.84602597  0.87625880    -0.06000
C1163       C  0.48535549  0.89414292  0.82539726    -0.05400
C1164       C  0.54781938  0.90792806  0.82830130    -0.06200
C1165       C  0.52244663  0.84800594  0.82463113    -0.06100
C1166       C  0.45535556  0.90846136  0.80984420    -0.31400
N1167       N  0.43661494  0.91632442  0.84896601     0.15100
C1168       C  0.45355864  0.90550902  0.88969367    -0.31400
H1169       H  0.44515212  0.90893101  0.92631508     0.17000
C1170       C  0.58050636  0.92423934  0.81542354    -0.30400
N1171       N  0.60037805  0.93283120  0.85600375     0.13800
C1172       C  0.58025196  0.92290837  0.89524481    -0.30400
C1173       C  0.52082671  0.81373869  0.80782450    -0.30700
N1174       N  0.51905273  0.79095517  0.84603652     0.14300
H1175       H  0.51775478  0.80572059  0.77035591     0.16900
C1176       C  0.52235765  0.81030066  0.88744900    -0.30700
H1177       H  0.52330258  0.79883017  0.92320891     0.16900
H1178       H  0.58968130  0.92530927  0.93236439     0.16900
H1179       H  0.44901148  0.91479886  0.77268344     0.17000
H1180       H  0.58996160  0.92687911  0.77878907     0.16900
O1181       O  0.03644768  0.99226820  0.97442507    -0.80100
O1182       O  0.86426824  0.93688876  0.71137121    -0.64800
O1183       O  0.96249791  0.96943579  0.68640258    -1.11400
C1184       C  0.96591877  0.84352554  0.66618066     1.06800
O1185       O  0.87633255  0.89307939  0.76107117    -0.78000
O1186       O  0.94787720  0.88851647  0.77620745    -0.65600
Ni1187     Ni  0.00218196  0.01975568  0.00365903     1.34900
C1188       C  0.97156013  0.91184811  0.76185476     0.85500
O1189       O  0.90074403  0.00259188  0.71512847    -0.78500
O1190       O  0.97073575  0.04933324  0.03401638    -0.88800
C1191       C  0.85418534  0.90948565  0.73679428     0.85100
O1192       O  0.97405959  0.02138294  0.94740107    -0.67000
O1193       O  0.94532950  0.84082850  0.70221492    -0.86300
C1194       C  0.94639738  0.99987773  0.94514451     0.85900
C1195       C  0.90901356  0.03120854  0.69103100     1.07500
H1196       H  0.92155331  0.91462012  0.96840789     0.39300
O1197       O  0.92286609  0.90747617  0.68620449    -1.09000
O1198       O  0.98883338  0.90518323  0.72653476    -0.65600
Ni1199     Ni  0.97191432  0.92073060  0.66728935     1.26300
O1200       O  0.92199598  0.00139903  0.97409429    -0.65800
O1201       O  0.97757211  0.87299575  0.64616498    -0.78100
C1202       C  0.03790414  0.96469762  0.64817834     0.85300
O1203       O  0.02084591  0.93460245  0.65632622    -0.65300
Ni1204     Ni  0.91268782  0.86901998  0.73148320     1.27400
Ni1205     Ni  0.91248971  0.95486024  0.70126826     1.26100
H1206       H  0.97930409  0.98092619  0.70815961     0.39900
O1207       O  0.05007486  0.00051113  0.83271820    -0.80100
O1208       O  0.87998670  0.97436874  0.81808255    -0.64800
O1209       O  0.98002823  0.99018120  0.84938050    -1.11400
C1210       C  0.96616022  0.86766879  0.88757514     1.06800
O1211       O  0.86122279  0.93040827  0.86976527    -0.78000
O1212       O  0.91673748  0.95213835  0.91337665    -0.65600
Ni1213     Ni  0.00911824  0.01341321  0.80094806     1.34900
C1214       C  0.94687910  0.96575306  0.92629194     0.85500
O1215       O  0.92896090  0.03082774  0.82281205    -0.78500
O1216       O  0.97009726  0.03284664  0.76852958    -0.88800
C1217       C  0.85546051  0.95611084  0.84114346     0.85100
O1218       O  0.00300076  0.96640494  0.77758218    -0.67000
O1219       O  0.93985916  0.87746995  0.91051970    -0.86300
C1220       C  0.97277190  0.94891071  0.77488848     0.85900
C1221       C  0.94952409  0.04885956  0.79440869     1.07500
H1222       H  0.91963283  0.92136109  0.81818774     0.39300
O1223       O  0.93192530  0.93207512  0.84547864    -1.09000
O1224       O  0.97444914  0.94962156  0.92246517    -0.65600
Ni1225     Ni  0.98390243  0.93997209  0.85754035     1.26300
O1226       O  0.94485217  0.96576104  0.77474753    -0.65800
O1227       O  0.98691112  0.89018593  0.86502666    -0.78100
C1228       C  0.05761114  0.97405467  0.85789940     0.85300
O1229       O  0.03489036  0.94817381  0.87043846    -0.65300
Ni1230     Ni  0.90215104  0.90695853  0.88950030     1.27400
Ni1231     Ni  0.92979213  0.98152198  0.83512866     1.26100
H1232       H  0.98809803  0.00440634  0.87627713     0.39900
C1233       C  0.02136971  0.52525253  0.96858775     0.30800
C1234       C  0.01980015  0.52786099  0.74007315     0.30800
C1235       C  0.01307797  0.48925503  0.66334071    -0.05400
C1236       C  0.05484959  0.54117123  0.66257400    -0.06200
C1237       C  0.99299573  0.54627885  0.65897627    -0.06000
C1238       C  0.01251377  0.49047357  0.71522488    -0.05400
C1239       C  0.05459431  0.54216385  0.71407505    -0.06200
C1240       C  0.99289968  0.54830260  0.71066845    -0.06100
C1241       C  0.99378346  0.45876195  0.72988721    -0.31400
N1242       N  0.98216761  0.43911473  0.69046943     0.15100
C1243       C  0.99349460  0.45633267  0.97900771    -0.31400
H1244       H  0.98558650  0.44967466  0.94219036     0.17000
C1245       C  0.08927782  0.55134904  0.72904425    -0.30400
N1246       N  0.11045821  0.55556130  0.68966674     0.13800
C1247       C  0.08947830  0.55034087  0.64924462    -0.30400
C1248       C  0.97618376  0.57791906  0.72074945    -0.30700
N1249       N  0.96602971  0.59300834  0.67862885     0.14300
H1250       H  0.97467537  0.58992709  0.75583373     0.16900
C1251       C  0.97481063  0.57315493  0.64129807    -0.30700
H1252       H  0.97845482  0.58918313  0.95024955     0.16900
H1253       H  0.10034723  0.54385607  0.94166887     0.16900
H1254       H  0.98644053  0.45204196  0.76661988     0.17000
H1255       H  0.09869687  0.55238991  0.76629340     0.16900
C1256       C  0.01930364  0.52948954  0.80164970     0.30800
C1257       C  0.01981914  0.52788617  0.90702320     0.30800
C1258       C  0.98408859  0.51623718  0.82778823    -0.05400
C1259       C  0.04478620  0.50620774  0.82878903    -0.06200
C1260       C  0.02896694  0.56578208  0.82902927    -0.06000
C1261       C  0.98435478  0.51572530  0.87954013    -0.05400
C1262       C  0.04453152  0.50496497  0.88023102    -0.06200
C1263       C  0.02957803  0.56477334  0.88093841    -0.06100
C1264       C  0.95258423  0.49756616  0.89308451    -0.31400
N1265       N  0.93376999  0.48555076  0.85286525     0.15100
C1266       C  0.95213524  0.49804192  0.81318201    -0.31400
H1267       H  0.94426634  0.49187716  0.77615657     0.17000
C1268       C  0.07124615  0.48522341  0.89496834    -0.30400
N1269       N  0.08900474  0.47641302  0.85556515     0.13800
C1270       C  0.07269991  0.48834326  0.81519825    -0.30400
C1271       C  0.03256644  0.59997382  0.89583103    -0.30700
N1272       N  0.03183011  0.62215508  0.85680681     0.14300
H1273       H  0.03383138  0.60902208  0.93280766     0.16900
C1274       C  0.03096767  0.60178152  0.81615126    -0.30700
H1275       H  0.02946143  0.61233196  0.77973856     0.16900
H1276       H  0.08182213  0.48598198  0.77865303     0.16900
H1277       H  0.94514356  0.49109214  0.92988829     0.17000
H1278       H  0.07915206  0.48014921  0.93200794     0.16900
C1279       C  0.38640953  0.02488349  0.73218850     0.30800
C1280       C  0.38645330  0.02308410  0.96012944     0.30800
C1281       C  0.41880354  0.01211355  0.70636076    -0.05400
C1282       C  0.35531114  0.00228300  0.70473626    -0.06200
C1283       C  0.38488285  0.06135787  0.70515635    -0.06000
C1284       C  0.42121038  0.01820732  0.98856739    -0.05400
C1285       C  0.36076094  0.99324081  0.98414857    -0.06200
C1286       C  0.37534255  0.05595992  0.98713677    -0.06100
C1287       C  0.45054301  0.00229393  0.97586405    -0.31400
N1288       N  0.46811362  0.99043504  0.68216625     0.15100
C1289       C  0.44981121  0.99908452  0.72155362    -0.31400
H1290       H  0.45753707  0.99481258  0.75884150     0.17000
C1291       C  0.32693216  0.98106037  0.96839996    -0.30400
N1292       N  0.29958370  0.98574541  0.67751922     0.13800
C1293       C  0.32062312  0.99156084  0.71765800    -0.30400
C1294       C  0.36996253  0.09043210  0.97464253    -0.30700
N1295       N  0.38712356  0.11808699  0.67970632     0.14300
H1296       H  0.37321114  0.10249852  0.93910096     0.16900
C1297       C  0.38486283  0.09638970  0.71937994    -0.30700
H1298       H  0.38430636  0.10562186  0.75627963     0.16900
H1299       H  0.31072218  0.99043785  0.75403049     0.16900
H1300       H  0.45668937  0.99543336  0.93936499     0.17000
H1301       H  0.31670511  0.98379426  0.93189524     0.16900
C1302       C  0.38724801  0.02410080  0.79398073     0.30800
C1303       C  0.38752798  0.02370802  0.89855796     0.30800
C1304       C  0.38413824  0.98718559  0.82041864    -0.05400
C1305       C  0.42084012  0.04225859  0.82087782    -0.06200
C1306       C  0.35806049  0.04212036  0.81986965    -0.06000
C1307       C  0.38446006  0.98712941  0.87257731    -0.05400
C1308       C  0.42063757  0.04266966  0.87312496    -0.06200
C1309       C  0.35818918  0.04159684  0.87143239    -0.06100
C1310       C  0.40001830  0.95732491  0.88712584    -0.31400
N1311       N  0.40985382  0.93975054  0.84795625     0.15100
C1312       C  0.39951455  0.95718515  0.80769635    -0.31400
H1313       H  0.40682888  0.95140722  0.77134262     0.17000
C1314       C  0.43940250  0.07444489  0.88616131    -0.30400
N1315       N  0.45090765  0.09293361  0.84618018     0.13800
C1316       C  0.44125957  0.07275653  0.80700396    -0.30400
C1317       C  0.32495243  0.04781992  0.88510821    -0.30700
N1318       N  0.30467628  0.05152394  0.84504503     0.14300
H1319       H  0.31470715  0.04487399  0.92134651     0.16900
C1320       C  0.32461112  0.04911106  0.80540260    -0.30700
H1321       H  0.31425014  0.04900056  0.76869813     0.16900
H1322       H  0.44210165  0.08320699  0.77043500     0.16900
H1323       H  0.40821545  0.95204652  0.92389640     0.17000
H1324       H  0.43743676  0.08665082  0.92119091     0.16900
O1325       O  0.39611264  0.39407878  0.71995728    -0.80100
O1326       O  0.44689126  0.55707119  0.67351911    -0.64800
O1327       O  0.41739242  0.45935770  0.67970401    -1.11400
C1328       C  0.53930976  0.41832424  0.02358111     1.06800
O1329       O  0.50145890  0.52325302  0.94828289    -0.78000
O1330       O  0.48823263  0.44646028  0.92431893    -0.65600
Ni1331     Ni  0.37824595  0.44103129  0.71761380     1.34900
C1332       C  0.46556178  0.42112934  0.93608693     0.85500
O1333       O  0.38368208  0.52136783  0.66522714    -0.78500
O1334       O  0.35320885  0.48257092  0.71385298    -0.88800
C1335       C  0.46653266  0.57072361  0.64084831     0.85100
O1336       O  0.40313840  0.46360452  0.77034559    -0.67000
O1337       O  0.53817014  0.43376103  0.98281144    -0.86300
C1338       C  0.43126493  0.48354296  0.76508530     0.85900
C1339       C  0.35546488  0.51002793  0.68687076     1.07500
H1340       H  0.49230110  0.51328034  0.70547659     0.39300
O1341       O  0.47937281  0.49807321  0.68207367    -1.09000
O1342       O  0.47189562  0.40066818  0.97004524    -0.65600
Ni1343     Ni  0.46751550  0.44761133  0.69594822     1.26300
O1344       O  0.42936302  0.51248902  0.74279234    -0.65800
O1345       O  0.51782583  0.44186957  0.70617918    -0.78100
C1346       C  0.42417735  0.37931345  0.71172762     0.85300
O1347       O  0.45414781  0.39706159  0.70521815    -0.65300
Ni1348     Ni  0.51705319  0.47597906  0.96581648     1.27400
Ni1349     Ni  0.43147544  0.50916780  0.67510200     1.26100
H1350       H  0.40439026  0.41036549  0.99025778     0.39900
O1351       O  0.40284976  0.34847822  0.83883918    -0.80100
O1352       O  0.41354259  0.51999214  0.86679499    -0.64800
O1353       O  0.41026935  0.41959490  0.83069144    -1.11400
C1354       C  0.53776748  0.44340401  0.85139866     1.06800
O1355       O  0.46270577  0.53762914  0.82459749    -0.78000
O1356       O  0.49314239  0.48747582  0.77719899    -0.65600
Ni1357     Ni  0.37859836  0.38523904  0.86430865     1.34900
C1358       C  0.46498173  0.46787303  0.76930121     0.85500
O1359       O  0.36047656  0.46635475  0.84373630    -0.78500
O1360       O  0.35021780  0.41931426  0.89126695    -0.88800
C1361       C  0.43438234  0.54418719  0.84509892     0.85100
O1362       O  0.41281216  0.38968170  0.91301590    -0.67000
O1363       O  0.53517639  0.47678381  0.85268815    -0.86300
C1364       C  0.42938315  0.42006754  0.91830593     0.85900
C1365       C  0.33901538  0.44403149  0.86573152     1.07500
H1366       H  0.45947433  0.48255278  0.88937705     0.39300
O1367       O  0.46020406  0.47111278  0.85852887    -1.09000
O1368       O  0.46544725  0.43496247  0.77715248    -0.65600
Ni1369     Ni  0.46054414  0.42018821  0.84182119     1.26300
O1370       O  0.41284665  0.44816620  0.91284645    -0.65800
O1371       O  0.51112887  0.42007683  0.84756456    -0.78100
C1372       C  0.43452367  0.34486132  0.82726595     0.85300
O1373       O  0.45931487  0.37050100  0.82507579    -0.65300
Ni1374     Ni  0.49714998  0.50594771  0.83894157     1.27400
Ni1375     Ni  0.41106651  0.46928461  0.84930317     1.26100
H1376       H  0.40563117  0.41160071  0.79830815     0.39900
C1377       C  0.42728394  0.18620316  0.83423205     0.16700
C1378       C  0.40918078  0.21610531  0.83222230    -0.32300
C1379       C  0.42861724  0.24856125  0.82265240     0.21100
C1380       C  0.46460913  0.25162054  0.81464292     0.03300
C1381       C  0.48272866  0.22107738  0.81439552    -0.22000
C1382       C  0.46314227  0.18820305  0.82483161     0.12500
S1383       S  0.40796429  0.14545896  0.84968177    -0.05700
C1384       C  0.44837907  0.13020677  0.84315596    -0.09100
C1385       C  0.47549474  0.15540603  0.82897764    -0.25800
S1386       S  0.48336469  0.29486567  0.80996666    -0.02900
C1387       C  0.44194081  0.30813005  0.81855321    -0.16400
C1388       C  0.41554780  0.28039711  0.82403622    -0.14400
H1389       H  0.38124312  0.21434505  0.83983018     0.21000
H1390       H  0.51087822  0.22300571  0.80840852     0.17000
H1391       H  0.50232986  0.15004311  0.82239509     0.19500
H1392       H  0.38817923  0.28330531  0.83147368     0.12900
C1393       C  0.43011359  0.27800526  0.69078362     0.16700
C1394       C  0.44060577  0.24424246  0.68029787    -0.32300
C1395       C  0.41503305  0.21432289  0.68248982     0.21100
C1396       C  0.36308770  0.20497511  0.04704593     0.03300
C1397       C  0.35531628  0.23857713  0.06198523    -0.22000
C1398       C  0.39565789  0.28163011  0.70321705     0.12500
S1399       S  0.45697595  0.31755436  0.68983776    -0.05700
C1400       C  0.42171303  0.33951084  0.70740050    -0.09100
C1401       C  0.38144818  0.30045102  0.07750776    -0.25800
S1402       S  0.33266112  0.16892945  0.03708406    -0.02900
C1403       C  0.38905217  0.15656182  0.68114551    -0.16400
C1404       C  0.42004216  0.17910162  0.67417816    -0.14400
H1405       H  0.46766814  0.24145078  0.67126410     0.21000
H1406       H  0.32830532  0.24401271  0.06710184     0.17000
H1407       H  0.35677591  0.31199077  0.08053316     0.19500
H1408       H  0.44505517  0.17007566  0.66488381     0.12900
C1409       C  0.24374651  0.46186390  0.83552488     0.16700
C1410       C  0.21344494  0.47442878  0.81533841    -0.32300
C1411       C  0.18142920  0.46533516  0.83858794     0.21100
C1412       C  0.17951000  0.44476767  0.88049685     0.03300
C1413       C  0.20986116  0.43137260  0.90020678    -0.22000
C1414       C  0.24204114  0.44027904  0.87650525     0.12500
S1415       S  0.28510345  0.47210598  0.81382986    -0.05700
C1416       C  0.30079582  0.44689903  0.86003088    -0.09100
C1417       C  0.27480070  0.43084494  0.89024333    -0.25800
S1418       S  0.13830510  0.43935904  0.90505303    -0.02900
C1419       C  0.12362855  0.46442961  0.85756931    -0.16400
C1420       C  0.14954155  0.47626571  0.82497497    -0.14400
H1421       H  0.21482563  0.49103914  0.78316956     0.21000
H1422       H  0.20857954  0.41535786  0.93297965     0.17000
H1423       H  0.27980117  0.41452366  0.92155864     0.19500
H1424       H  0.14565946  0.49342828  0.79418180     0.12900
C1425       C  0.26570934  0.54337138  0.65484997     0.16700
C1426       C  0.23245635  0.54746053  0.63337017    -0.32300
C1427       C  0.20470668  0.55394706  0.66403608     0.21100
C1428       C  0.21023955  0.55745323  0.71361728     0.03300
C1429       C  0.24875238  0.53516415  0.05311760    -0.22000
C1430       C  0.27085233  0.54621578  0.70457629     0.12500
S1431       S  0.30154709  0.53089192  0.62510871    -0.05700
C1432       C  0.32323870  0.52845988  0.68041769    -0.09100
C1433       C  0.30365731  0.53767407  0.71933499    -0.25800
S1434       S  0.17930968  0.54641297  0.06819694    -0.02900
C1435       C  0.14884458  0.55879718  0.69125310    -0.16400
C1436       C  0.16963087  0.55494456  0.65088965    -0.14400
H1437       H  0.22793857  0.54390515  0.59477082     0.21000
H1438       H  0.25479067  0.53923487  0.09129249     0.17000
H1439       H  0.31878386  0.51952135  0.07055618     0.19500
H1440       H  0.15959405  0.55114667  0.61414654     0.12900
C1441       C  0.15711906  0.97848487  0.85536893     0.16700
C1442       C  0.19160274  0.97663672  0.83928880    -0.32300
C1443       C  0.21612207  0.00688406  0.84555795     0.21100
C1444       C  0.20701766  0.03726931  0.86773297     0.03300
C1445       C  0.17272519  0.03904161  0.88373949    -0.22000
C1446       C  0.14816686  0.00914557  0.87677753     0.12500
S1447       S  0.12207884  0.94659418  0.84635392    -0.05700
C1448       C  0.09519432  0.97526080  0.87107278    -0.09100
C1449       C  0.11302346  0.00730930  0.88603465    -0.25800
S1450       S  0.24076523  0.07056164  0.87421820    -0.02900
C1451       C  0.26718755  0.04369233  0.84552686    -0.16400
C1452       C  0.25077329  0.01055022  0.83239722    -0.14400
H1453       H  0.19877571  0.95307861  0.82164610     0.21000
H1454       H  0.16532809  0.06292009  0.90030676     0.17000
H1455       H  0.10020643  0.02955799  0.89890678     0.19500
H1456       H  0.26402173  0.98973393  0.81639140     0.12900
C1457       C  0.97476256  0.76503316  0.89175362     0.16700
C1458       C  0.97119304  0.72788784  0.90017559    -0.32300
C1459       C  0.99633505  0.70750976  0.88022748     0.21100
C1460       C  0.02324974  0.72330414  0.85170816     0.03300
C1461       C  0.02714660  0.76055977  0.84394514    -0.22000
C1462       C  0.00261884  0.78105442  0.86520962     0.12500
S1463       S  0.94680584  0.79445410  0.91215629    -0.05700
C1464       C  0.97392077  0.82934456  0.88728304    -0.09100
C1465       C  0.00233008  0.81767604  0.86267304    -0.25800
S1466       S  0.04965589  0.69346654  0.82832135    -0.02900
C1467       C  0.02514723  0.65939014  0.85885285    -0.16400
C1468       C  0.99763590  0.67110625  0.88504588    -0.14400
H1469       H  0.94984742  0.71540614  0.92181022     0.21000
H1470       H  0.04844815  0.77307106  0.82225456     0.17000
H1471       H  0.02173887  0.83515297  0.84332119     0.19500
H1472       H  0.97906531  0.65369429  0.90581417     0.12900
C1473       C  0.19992685  0.99710056  0.68092522     0.16700
C1474       C  0.16637453  0.00981588  0.68423408    -0.32300
C1475       C  0.13587129  0.98668850  0.67163924     0.21100
C1476       C  0.13885874  0.95200061  0.65808567     0.03300
C1477       C  0.17234561  0.93936446  0.65447666    -0.22000
C1478       C  0.20285163  0.96281043  0.66544701     0.12500
S1479       S  0.24007080  0.02111666  0.69363573    -0.05700
C1480       C  0.26123065  0.98496948  0.67687433    -0.09100
C1481       C  0.23789404  0.95583137  0.66245798    -0.25800
S1482       S  0.09897967  0.92795745  0.64481729    -0.02900
C1483       C  0.07766232  0.96575223  0.65297959    -0.16400
C1484       C  0.10090348  0.99467361  0.66917866    -0.14400
H1485       H  0.17752548  0.03357523  0.01890218     0.21000
H1486       H  0.17453216  0.91248404  0.64273202     0.17000
H1487       H  0.24610194  0.93082988  0.65071876     0.19500
H1488       H  0.09276983  0.02035224  0.67797002     0.12900
C1489       C  0.95047298  0.68733404  0.64602301     0.16700
C1490       C  0.93694257  0.71879044  0.63154436    -0.32300
C1491       C  0.95891664  0.75072361  0.63739783     0.21100
C1492       C  0.99343376  0.75140072  0.65459818     0.03300
C1493       C  0.00725603  0.71980898  0.66813202    -0.22000
C1494       C  0.98464768  0.68804384  0.66470235     0.12500
S1495       S  0.92716464  0.64607840  0.64509447    -0.05700
C1496       C  0.96322646  0.63011967  0.67251293    -0.09100
C1497       C  0.99207224  0.65517468  0.68012887    -0.25800
S1498       S  0.01396794  0.79320613  0.66514928    -0.02900
C1499       C  0.97524761  0.80973817  0.64774619    -0.16400
C1500       C  0.94852748  0.78405222  0.63321850    -0.14400
H1501       H  0.90986459  0.71858969  0.61866121     0.21000
H1502       H  0.03710683  0.72575048  0.98629540     0.17000
H1503       H  0.02434022  0.65317961  0.99309875     0.19500
H1504       H  0.92160360  0.78929840  0.62509380     0.12900
C1505       C  0.43872031  0.64412652  0.86152044     0.16700
C1506       C  0.44643544  0.67779400  0.88284250    -0.32300
C1507       C  0.47034254  0.70296406  0.85907627     0.21100
C1508       C  0.48490305  0.69539325  0.81527952     0.03300
C1509       C  0.47597730  0.66251343  0.79302417    -0.22000
C1510       C  0.45287868  0.63722896  0.81730836     0.12500
S1511       S  0.41629408  0.60725952  0.88836943    -0.05700
C1512       C  0.42808369  0.58214643  0.84079349    -0.09100
C1513       C  0.44532957  0.60256030  0.80429836    -0.25800
S1514       S  0.51360016  0.72896761  0.79232519    -0.02900
C1515       C  0.50623796  0.75378706  0.84238640    -0.16400
C1516       C  0.48231450  0.73662663  0.87460025    -0.14400
H1517       H  0.43553063  0.68360138  0.91735532     0.21000
H1518       H  0.48770260  0.65633013  0.75913757     0.17000
H1519       H  0.45647904  0.59158179  0.77266483     0.19500
H1520       H  0.47284669  0.74875408  0.90633813     0.12900
C1521       C  0.69991642  0.95828211  0.87759593     0.16700
C1522       C  0.73441397  0.96378216  0.89714689    -0.32300
C1523       C  0.76269172  0.96663143  0.86487075     0.21100
C1524       C  0.75703908  0.96594514  0.81518032     0.03300
C1525       C  0.72243028  0.96143038  0.79549895    -0.22000
C1526       C  0.69407381  0.95703531  0.82789933     0.12500
S1527       S  0.66233073  0.95013474  0.91083049    -0.05700
C1528       C  0.63803197  0.94461314  0.85729209    -0.09100
C1529       C  0.65871433  0.94943589  0.81600672    -0.25800
S1530       S  0.79522772  0.96762370  0.78268405    -0.02900
C1531       C  0.81852247  0.96523033  0.83666057    -0.16400
C1532       C  0.79791201  0.96742195  0.87708228    -0.14400
H1533       H  0.73904781  0.96422409  0.93595258     0.21000
H1534       H  0.71785662  0.95971817  0.75670029     0.17000
H1535       H  0.64882393  0.94639063  0.77911057     0.19500
H1536       H  0.80832369  0.96831101  0.91376378     0.12900
C1537       C  0.43607781  0.72049878  0.67031121     0.16700
C1538       C  0.42252496  0.68539707  0.66181982    -0.32300
C1539       C  0.44661762  0.66119187  0.65189542     0.21100
C1540       C  0.48267646  0.67114199  0.64972276     0.03300
C1541       C  0.49640304  0.70626235  0.65904166    -0.22000
C1542       C  0.47223511  0.73040945  0.66977799     0.12500
S1543       S  0.41088151  0.75435138  0.68025567    -0.05700
C1544       C  0.44957045  0.78173617  0.68472017    -0.09100
C1545       C  0.48014847  0.76556370  0.67914382    -0.25800
S1546       S  0.50715956  0.63694834  0.63774998    -0.02900
C1547       C  0.46822464  0.60927491  0.63650014    -0.16400
C1548       C  0.43830583  0.62587829  0.64462734    -0.14400
H1549       H  0.39439287  0.67727250  0.66274975     0.21000
H1550       H  0.53524594  0.68904985  0.95939171     0.17000
H1551       H  0.50658792  0.77940229  0.67967697     0.19500
H1552       H  0.41183917  0.61232501  0.64723702     0.12900
C1553       C  0.70034852  0.87018043  0.68103984     0.16700
C1554       C  0.73423664  0.88324630  0.66644976    -0.32300
C1555       C  0.76153069  0.88515970  0.70135052     0.21100
C1556       C  0.75592419  0.87306699  0.74841850     0.03300
C1557       C  0.72539680  0.88836580  0.97420058    -0.22000
C1558       C  0.69391426  0.85997569  0.72867592     0.12500
S1559       S  0.66381468  0.86761923  0.64412523    -0.05700
C1560       C  0.63873636  0.85486503  0.69371099    -0.09100
C1561       C  0.65842434  0.85119161  0.73631064    -0.25800
S1562       S  0.79586659  0.90762461  0.96433429    -0.02900
C1563       C  0.81631761  0.89597958  0.73571842    -0.16400
C1564       C  0.79576373  0.89874674  0.69415355    -0.14400
H1565       H  0.73904366  0.89203866  0.62951367     0.21000
H1566       H  0.72402097  0.87657248  0.93851780     0.17000
H1567       H  0.65557304  0.85836642  0.95728513     0.19500
H1568       H  0.80549598  0.91006811  0.66015564     0.12900
C1569       C  0.95257050  0.15213545  0.78894527     0.16700
C1570       C  0.95386883  0.18861793  0.77686423    -0.32300
C1571       C  0.94323736  0.21201949  0.81208160     0.21100
C1572       C  0.93229814  0.19967147  0.85733072     0.03300
C1573       C  0.93080199  0.16345235  0.86917404    -0.22000
C1574       C  0.94082837  0.14017498  0.83396194     0.12500
S1575       S  0.96354311  0.11861183  0.75186110    -0.05700
C1576       C  0.95085946  0.08830468  0.79723951    -0.09100
C1577       C  0.93970151  0.10404531  0.83871354    -0.25800
S1578       S  0.91947543  0.23160528  0.89462291    -0.02900
C1579       C  0.92826772  0.26244024  0.84885390    -0.16400
C1580       C  0.94094632  0.24805572  0.80695485    -0.14400
H1581       H  0.96223356  0.19824964  0.74142274     0.21000
H1582       H  0.92158431  0.15368668  0.90420219     0.17000
H1583       H  0.93073523  0.08955599  0.87100536     0.19500
H1584       H  0.94717739  0.26284982  0.77393121     0.12900
C1585       C  0.69456091  0.42162781  0.84972307     0.16700
C1586       C  0.66949247  0.44559531  0.85792318    -0.32300
C1587       C  0.63347050  0.43258624  0.85477309     0.21100
C1588       C  0.62303050  0.39712950  0.84476782     0.03300
C1589       C  0.64803216  0.37323824  0.83650057    -0.22000
C1590       C  0.68398501  0.38635340  0.83868607     0.12500
S1591       S  0.73945334  0.43171675  0.85361127    -0.05700
C1592       C  0.74405591  0.38817359  0.83884919    -0.09100
C1593       C  0.71223963  0.36714288  0.83178680    -0.25800
S1594       S  0.57830544  0.38640747  0.84221315    -0.02900
C1595       C  0.57319989  0.43037256  0.85341992    -0.16400
C1596       C  0.60498031  0.45185415  0.85981592    -0.14400
H1597       H  0.67771952  0.47318477  0.86632820     0.21000
H1598       H  0.63978151  0.34565683  0.82808630     0.17000
H1599       H  0.70995404  0.33893236  0.82439734     0.19500
H1600       H  0.60715045  0.48015607  0.86660472     0.12900
C1601       C  0.86048100  0.17734906  0.66036091     0.16700
C1602       C  0.86927574  0.14605582  0.63905531    -0.32300
C1603       C  0.87303179  0.11661846  0.66923152     0.21100
C1604       C  0.86628235  0.11733106  0.71826264     0.03300
C1605       C  0.85772891  0.14903422  0.73991563    -0.22000
C1606       C  0.85576574  0.17939002  0.70985585     0.12500
S1607       S  0.85716885  0.21614307  0.62952171    -0.05700
C1608       C  0.86691430  0.24270607  0.02713905    -0.09100
C1609       C  0.84793735  0.21087985  0.04035216    -0.25800
S1610       S  0.88046932  0.08107267  0.07194237    -0.02900
C1611       C  0.88834738  0.06241685  0.69466696    -0.16400
C1612       C  0.88558885  0.08556154  0.65569748    -0.14400
H1613       H  0.87428088  0.14511673  0.60063466     0.21000
H1614       H  0.83292230  0.13888983  0.06422921     0.17000
H1615       H  0.81965042  0.20724635  0.04523514     0.19500
H1616       H  0.89415165  0.08061499  0.61948433     0.12900
C1617       C  0.68860682  0.38012306  0.03243723     0.16700
C1618       C  0.65294069  0.36696639  0.02498722    -0.32300
C1619       C  0.62717167  0.38925167  0.03667526     0.21100
C1620       C  0.63529351  0.42189466  0.69700327     0.03300
C1621       C  0.66577694  0.40724466  0.71409063    -0.22000
C1622       C  0.69854021  0.41932236  0.69341343     0.12500
S1623       S  0.72390322  0.35849704  0.01735954    -0.05700
C1624       C  0.75138611  0.39515938  0.03699109    -0.09100
C1625       C  0.73117596  0.40868927  0.70586331    -0.25800
S1626       S  0.59320275  0.41205091  0.71877514    -0.02900
C1627       C  0.57439678  0.41183161  0.04161834    -0.16400
C1628       C  0.59123656  0.38265838  0.02873183    -0.14400
H1629       H  0.64566427  0.34095990  0.00947090     0.21000
H1630       H  0.66401976  0.38709308  0.74208631     0.17000
H1631       H  0.73533690  0.38907199  0.73354435     0.19500
H1632       H  0.57826423  0.35909696  0.01132646     0.12900
loop_ 
_geom_bond_atom_site_label_1 
_geom_bond_atom_site_label_2 
_geom_bond_distance 
_geom_bond_site_symmetry_2 
_ccdc_geom_bond_type 
C1            C3   1.569       .  S
C1            C5   1.583       .  S
C1            C4   1.576       .  S
C1           C25   1.769       .  S
C2            C6   1.553       .  S
C2            C8   1.570       .  S
C2            C7   1.569       .  S
C2           C24   1.702       .  S
C3           C11   1.386       .  A
C3          C550   1.426       .  A
C4           C15   1.393       .  A
C4          C551   1.435       .  A
C5           C19   1.388       .  A
C5          C552   1.443       .  A
C6            C9   1.380       .  A
C6         C1091   1.424   1_554  A
C7           C13   1.386       .  A
C7         C1092   1.443   1_554  A
C8           C16   1.378       .  A
C8         C1093   1.426   1_554  A
C9           N10   1.363       .  A
C9           H22   1.079       .  S
N10        C1099   1.364   1_554  A
N10         N154   1.424       .  S
C11         N554   1.365       .  A
C11          H12   1.079       .  S
C13        N1102   1.346       .  A
C13          H23   1.080       .  S
N14          C15   1.347       .  A
N14         C557   1.339       .  A
N14         C536   1.435       .  S
C15          H21   1.075       .  S
C16        N1105   1.354       .  A
C16          H18   1.079       .  S
N17          C19   1.353       .  A
N17         C560   1.354       .  A
N17         C520   1.456       .  S
C19          H20   1.067       .  S
C24          C26   1.554       .  S
C24          C28   1.556       .  S
C24          C27   1.578       .  S
C25          C29   1.577       .  S
C25          C31   1.576       .  S
C25          C30   1.567       .  S
C26          C34   1.378       .  A
C26          C29   1.429       .  A
C27          C38   1.385       .  A
C27          C30   1.439       .  A
C28          C42   1.380       .  A
C28          C31   1.447       .  A
C29          C32   1.391       .  A
C30          C36   1.384       .  A
C31          C39   1.388       .  A
C32          N33   1.368       .  A
C32          H45   1.078       .  S
N33          C34   1.359       .  A
N33         N177   1.426       .  S
C34          H35   1.079       .  S
C36          N37   1.344       .  A
C36          H46   1.074       .  S
N37          C38   1.346       .  A
N37         C504   1.434       .  S
C38          H44   1.079       .  S
C39          N40   1.344       .  A
C39          H41   1.076       .  S
N40          C42   1.341       .  A
N40         C491   1.432       .  S
C42          H43   1.081       .  S
C47         C593   1.554       .  S
C47         C595   1.573       .  S
C47         C594   1.546       .  S
C47          C70   1.709       .  S
C48          C52   1.545       .  S
C48          C54   1.541       .  S
C48          C53   1.573       .  S
C48          C71   1.704       .  S
C49        C1135   1.558       .  S
C49          C52   1.421   1_556  A
C49        C1145   1.380       .  A
C50        C1135   1.583       .  S
C50          C53   1.452   1_556  A
C50        C1149   1.388       .  A
C51        C1135   1.558       .  S
C51          C54   1.425   1_556  A
C51        C1153   1.378       .  A
C52          C55   1.373       .  A
C53          C59   1.396       .  A
C54          C62   1.363       .  A
C55          N56   1.359       .  A
C55          H68   1.079       .  S
N56        C1145   1.363   1_554  A
N56         N200   1.418       .  S
C57         C593   1.378       .  A
C57         N600   1.355       .  A
C57          H58   1.079       .  S
C59          N60   1.355       .  A
C59          H69   1.079       .  S
N60        C1149   1.354   1_554  A
N60         C456   1.453       .  S
C61         C594   1.363       .  A
C61         N604   1.359       .  A
C61          H67   1.081       .  S
C62          N63   1.352       .  A
C62          H64   1.081       .  S
N63        C1153   1.361   1_554  A
N63         C472   1.432       .  S
C65         C595   1.392       .  A
C65         N607   1.365       .  A
C65          H66   1.078       .  S
C70          C72   1.561       .  S
C70          C74   1.561       .  S
C70          C73   1.557       .  S
C71          C75   1.561       .  S
C71          C77   1.540       .  S
C71          C76   1.564       .  S
C72          C80   1.382       .  A
C72          C75   1.436       .  A
C73          C84   1.371       .  A
C73          C76   1.441       .  A
C74          C88   1.387       .  A
C74          C77   1.423       .  A
C75          C78   1.380       .  A
C76          C82   1.383       .  A
C77          C85   1.364       .  A
C78          N79   1.359       .  A
C78          H91   1.079       .  S
N79          C80   1.360       .  A
N79         N223   1.420       .  S
C80          H81   1.079       .  S
C82          N83   1.356       .  A
C82          H92   1.081       .  S
N83          C84   1.351       .  A
N83         C440   1.426       .  S
C84          H90   1.082       .  S
C85          N86   1.346       .  A
C85          H87   1.081       .  S
N86          C88   1.364       .  A
N86         C427   1.429       .  S
C88          H89   1.082       .  S
O93         Ni99   1.970   1_455  S
O93         C658   1.290       .  A
O94        Ni117   1.954       .  S
O94         C103   1.286       .  A
O95        Ni117   1.954       .  S
O95        Ni111   1.925       .  S
O95       Ni1187   1.886   1_665  S
O95         H118   0.941       .  S
C96         O113   1.282   1_554  A
C96         O105   1.262       .  A
C96         C411   1.488       .  S
O97        Ni116   1.889       .  S
O97         C103   1.271       .  A
O98        Ni116   1.814       .  S
O98         C100   1.260       .  A
Ni99        O102   1.940   1_565  S
Ni99        O104   1.890       .  S
Ni99        O639   1.905       .  S
C100        O110   1.278       .  A
C100        C132   1.421       .  S
O101       Ni117   1.945   1_545  S
O101        C107   1.284       .  A
O102        C651   1.278       .  A
C103        C475   1.457       .  S
O104        C106   1.258       .  A
O105       Ni116   1.902       .  S
C106        O112   1.251       .  A
C106        C126   1.434       .  S
C107       O1190   1.281       .  A
C107        C523   1.483       .  S
H108        O653   0.952       .  S
O109       Ni117   2.029   1_556  S
O109       Ni111   1.926   1_556  S
O109       Ni116   1.883   1_556  S
O109       H1196   0.942       .  S
O110       Ni111   1.902       .  S
Ni111       O115   1.911   1_655  S
Ni111       O113   1.966   1_554  S
O112       Ni661   1.914       .  S
C114        O115   1.281   1_556  A
C114       O1181   1.288       .  A
C114        C395   1.470       .  S
Ni117      O1200   1.900   1_564  S
O119       Ni125   1.888   1_465  S
O119        C140   1.273       .  A
O120       Ni143   1.898       .  S
O120        C129   1.271       .  A
O121       Ni125   1.894   1_565  S
O121       Ni143   1.942       .  S
O121       Ni137   1.969       .  S
O121        H144   0.941       .  S
C122        O139   1.284       .  A
C122        O131   1.276       .  A
C122        C376   1.495       .  S
O123       Ni142   1.943       .  S
O123        C129   1.282       .  A
O124       Ni142   1.838       .  S
O124        C126   1.256       .  A
Ni125       O128   1.896       .  S
Ni125       O130   1.797   1_545  S
C126        O136   1.273       .  A
O127       Ni143   1.948   1_545  S
O127        C133   1.272       .  A
O128        C133   1.257       .  A
C129        C443   1.469       .  S
O130        C132   1.257       .  A
O131       Ni142   1.924       .  S
C132        O138   1.277       .  A
C133        C488   1.467       .  S
H134        O135   0.941       .  S
O135       Ni143   1.928       .  S
O135       Ni137   1.977       .  S
O135       Ni142   1.909       .  S
O136       Ni137   1.895       .  S
Ni137       O141   1.979   1_655  S
Ni137       O139   1.957       .  S
O138       Ni143   1.893       .  S
C140        O141   1.294       .  A
C140        C360   1.483       .  S
C145        C691   1.566       .  S
C145        C693   1.543   1_455  S
C145        C692   1.567       .  S
C145        C169   1.695       .  S
C146        C150   1.559       .  S
C146        C152   1.566   1_455  S
C146        C151   1.565       .  S
C146        C168   1.704       .  S
C147       C1233   1.569       .  S
C147        C150   1.429   1_556  A
C147       C1243   1.386   1_455  A
C148       C1233   1.563       .  S
C148        C159   1.386       .  A
C148        C151   1.427   1_556  A
C149       C1233   1.559   1_655  S
C149        C163   1.381       .  A
C149        C152   1.432   1_556  A
C150        C153   1.380   1_455  A
C151        C157   1.384       .  A
C152        C160   1.386       .  A
C153        N154   1.362       .  A
C153        H166   1.079       .  S
N154       C1243   1.364   1_554  A
C155        C691   1.386   1_655  A
C155        N698   1.362       .  A
C155        H156   1.079       .  S
C157        N158   1.364       .  A
C157        H167   1.080       .  S
N158        C159   1.361   1_554  A
N158        C347   1.453       .  S
C159       H1253   1.080       .  S
C160        N161   1.355       .  A
C160        H162   1.080       .  S
N161        C163   1.353   1_554  A
N161        C408   1.440       .  S
C163       H1252   1.078       .  S
H164        C707   1.081       .  S
H165        C703   1.081       .  S
C168        C170   1.574   1_455  S
C168        C172   1.554       .  S
C168        C171   1.572       .  S
C169        C173   1.554   1_455  S
C169        C175   1.567       .  S
C169        C174   1.551       .  S
C170        C178   1.389       .  A
C170        C173   1.426       .  A
C171        C182   1.391       .  A
C171        C174   1.437       .  A
C172        C186   1.379       .  A
C172        C175   1.424       .  A
C173        C176   1.383       .  A
C174        C180   1.372       .  A
C175        C183   1.387       .  A
C176        N177   1.359       .  A
C176        H189   1.079       .  S
N177        C178   1.367       .  A
C178        H179   1.078       .  S
C180        N181   1.352       .  A
C180        H190   1.080       .  S
N181        C182   1.365       .  A
N181        C331   1.449       .  S
C182        H188   1.079       .  S
C183        N184   1.364       .  A
C183        H185   1.080       .  S
N184        C186   1.354       .  A
N184        C379   1.441       .  S
C186        H187   1.081       .  S
C191        C193   1.557       .  S
C191        C195   1.545       .  S
C191        C194   1.565   1_545  S
C191        C214   1.700       .  S
C192        C196   1.565       .  S
C192        C198   1.569       .  S
C192        C197   1.561   1_545  S
C192        C215   1.706       .  S
C193        C201   1.377       .  A
C193       C1284   1.427   1_554  A
C194        C205   1.382       .  A
C194       C1285   1.446   1_554  A
C195        C209   1.369       .  A
C195       C1286   1.423   1_554  A
C196        C199   1.383       .  A
C196        C737   1.426       .  A
C197        C203   1.383       .  A
C197        C738   1.431       .  A
C198        C206   1.386       .  A
C198        C739   1.430       .  A
C199        N744   1.366   1_545  A
C199        H212   1.080   1_545  S
N200        C201   1.361   1_565  A
N200       C1287   1.359   1_564  A
C201        H202   1.078   1_545  S
C203        N748   1.354       .  A
C203        H213   1.079       .  S
N204        C205   1.352       .  A
N204       C1291   1.351   1_554  A
N204        C392   1.434       .  S
C205        H211   1.078       .  S
C206        N751   1.358       .  A
C206        H208   1.081       .  S
N207        C209   1.351       .  A
N207       C1294   1.360   1_554  A
N207        C315   1.425       .  S
C209        H210   1.082       .  S
C214        C216   1.555   1_545  S
C214        C218   1.556       .  S
C214        C217   1.563       .  S
C215        C219   1.559   1_545  S
C215        C221   1.566       .  S
C215        C220   1.565       .  S
C216        C224   1.378       .  A
C216        C219   1.426       .  A
C217        C228   1.384       .  A
C217        C220   1.438       .  A
C218        C232   1.381       .  A
C218        C221   1.429       .  A
C219        C222   1.379       .  A
C220        C226   1.382       .  A
C221        C229   1.382       .  A
C222        N223   1.362       .  A
C222        H235   1.079       .  S
N223        C224   1.362       .  A
C224        H225   1.079       .  S
C226        N227   1.353       .  A
C226        H236   1.078       .  S
N227        C228   1.354       .  A
N227        C296   1.435       .  S
C228        H234   1.080       .  S
C229        N230   1.358       .  A
C229        H231   1.080       .  S
N230        C232   1.354       .  A
N230        C363   1.441       .  S
C232        H233   1.078       .  S
O237       Ni243   1.949       .  S
O237        C258   1.282       .  A
O238       Ni261   1.894       .  S
O238        C247   1.271       .  A
O239       Ni243   1.930       .  S
O239       Ni261   1.959   1_554  S
O239       Ni255   1.973       .  S
O239       H1350   0.951   1_554  S
C240        O249   1.286       .  A
C240        O801   1.281       .  A
C240        C539   1.465       .  S
O241       Ni260   1.921       .  S
O241        C791   1.274       .  A
O242       Ni260   1.897       .  S
O242        C244   1.258       .  A
Ni243       O246   1.926       .  S
Ni243       O248   1.856       .  S
C244        O254   1.215       .  A
C244        C276   1.412       .  S
O245       Ni261   1.951       .  S
O245        C251   1.274   1_556  A
O246        C251   1.269       .  A
C247       O1329   1.294       .  A
C247        C459   1.507       .  S
O248        C250   1.246       .  A
O249       Ni260   1.956       .  S
C250        O256   1.269       .  A
C250        C270   1.504       .  S
C251        C344   1.492   1_554  S
H252        O253   0.957       .  S
O253       Ni261   1.918   1_554  S
O253       Ni255   1.968       .  S
O253      Ni1348   1.889   1_554  S
O254       Ni799   1.828       .  S
Ni255       O259   1.898       .  S
Ni255       O257   1.952       .  S
Ni255      O1342   1.858   1_554  S
O256       Ni261   1.893   1_554  S
O257       C1328   1.274       .  A
C258        O259   1.271       .  A
C258        C312   1.473       .  S
Ni260       O797   1.906       .  S
H262        O783   0.951       .  S
O263       Ni269   1.940       .  S
O263        C284   1.278       .  A
O264       Ni287   1.918       .  S
O264        C273   1.277       .  A
O265       Ni269   1.881       .  S
O265       Ni287   1.971       .  S
O265       Ni281   1.930       .  S
O265        H288   0.962       .  S
C266        O283   1.273       .  A
C266        O275   1.282       .  A
C266        C507   1.479       .  S
O267       Ni286   1.925       .  S
O267        C273   1.276       .  A
O268       Ni286   1.827       .  S
O268        C270   1.258       .  A
Ni269       O272   1.945       .  S
Ni269       O274   1.869       .  S
C270        O280   1.250       .  A
O271       Ni287   1.925       .  S
O271        C277   1.274       .  A
O272        C277   1.277       .  A
C273        C424   1.468       .  S
O274        C276   1.275       .  A
O275       Ni286   1.947       .  S
C276        O282   1.266       .  A
C277        C328   1.484       .  S
H278        O279   0.947       .  S
O279       Ni287   1.938       .  S
O279       Ni281   1.984       .  S
O279       Ni286   1.885       .  S
O280       Ni281   1.874       .  S
Ni281       O285   1.914       .  S
Ni281       O283   1.910       .  S
O282       Ni287   1.857       .  S
C284        O285   1.271       .  A
C284        C299   1.478       .  S
C289        C294   1.388       .  A
C289        C290   1.401       .  A
C289        S295   1.705       .  A
C290        C291   1.401       .  A
C290        H301   1.083       .  S
C291        C300   1.372       .  A
C291        C292   1.386       .  A
C292        C293   1.408       .  A
C292        S298   1.713       .  A
C293        C294   1.408       .  A
C293        H302   1.083       .  S
C294        C297   1.380       .  A
S295        C296   1.721       .  A
C296        C297   1.387       .  A
C297        H303   1.082       .  S
S298        C299   1.728       .  A
C299        C300   1.386       .  A
C300        H304   1.083       .  S
C305        C310   1.387       .  A
C305        C306   1.398       .  A
C305        S311   1.702       .  A
C306        C307   1.398       .  A
C306        H317   1.083       .  S
C307        C316   1.365       .  A
C307       C1396   1.387       .  A
C308        C309   1.405       .  A
C308        C851   1.387       .  A
C308        S314   1.718       .  A
C309        C854   1.407       .  A
C309        H318   1.083       .  S
C310       C1397   1.405       .  A
C310       C1401   1.372       .  A
S311        C312   1.724       .  A
C312       C1401   1.389       .  A
C313        C854   1.375       .  A
C313        C856   1.394       .  A
C313        H319   1.083       .  S
S314        C859   1.721       .  A
C315        C316   1.380       .  A
C315       S1402   1.721       .  A
C316        H320   1.083       .  S
C321        C326   1.385       .  A
C321        C322   1.402       .  A
C321        S327   1.702       .  A
C322        C323   1.400       .  A
C322        H333   1.081       .  S
C323        C332   1.376       .  A
C323        C324   1.386       .  A
C324        C325   1.410       .  A
C324        S330   1.710       .  A
C325        C326   1.408       .  A
C325        H334   1.083       .  S
C326        C329   1.382       .  A
S327        C328   1.719       .  A
C328        C329   1.393       .  A
C329        H335   1.083       .  S
S330        C331   1.735       .  A
C331        C332   1.389       .  A
C332        H336   1.081       .  S
C337        C342   1.383   1_556  A
C337        C338   1.413       .  A
C337        S343   1.720       .  A
C338        C339   1.414       .  A
C338        H349   1.083       .  S
C339        C348   1.384       .  A
C339        C340   1.386   1_556  A
C340       C1429   1.405       .  A
C340       S1434   1.711       .  A
C341        C884   1.408       .  A
C341        C886   1.407       .  A
C341        H350   1.083       .  S
C342        C345   1.376       .  A
C342       C1429   1.405       .  A
S343        C344   1.723       .  A
C344        C345   1.388   1_556  A
C345       H1439   1.079       .  S
S346        C884   1.710       .  A
S346        C891   1.730       .  A
C347        C348   1.399   1_554  A
C347       S1434   1.727       .  A
C348        H352   1.082       .  S
H351        C889   1.082       .  S
C353        C358   1.382       .  A
C353        C354   1.414       .  A
C353        S359   1.732       .  A
C354        C355   1.418       .  A
C354        H365   1.083       .  S
C355        C364   1.380       .  A
C355        C356   1.387   1_565  A
C356        C357   1.392       .  A
C356        S362   1.706       .  A
C357        C358   1.397   1_545  A
C357        H366   1.083       .  S
C358        C361   1.357       .  A
S359        C360   1.733       .  A
C360        C361   1.386       .  A
C361        H367   1.083   1_565  S
S362        C363   1.717       .  A
C363        C364   1.398   1_545  A
C364        H368   1.082       .  S
C369        C374   1.386   1_655  A
C369        C370   1.400       .  A
C369        S375   1.697       .  A
C370        C371   1.398   1_655  A
C370        H381   1.083       .  S
C371        C380   1.372       .  A
C371        C372   1.386       .  A
C372        C373   1.417       .  A
C372        S378   1.724       .  A
C373        C374   1.416       .  A
C373        H382   1.082       .  S
C374        C377   1.392       .  A
S375        C376   1.727       .  A
C376        C377   1.399   1_655  A
C377        H383   1.082       .  S
S378        C379   1.729       .  A
C379        C380   1.383       .  A
C380        H384   1.083   1_455  S
C385        C390   1.388   1_554  A
C385        C386   1.405   1_565  A
C385        S391   1.709   1_565  A
C386        C387   1.404   1_544  A
C386       H1485   1.083       .  S
C387        C396   1.374   1_556  A
C387        C388   1.387       .  A
C388        C389   1.402       .  A
C388        S394   1.708       .  A
C389        C390   1.402       .  A
C389        H398   1.083       .  S
C390        C393   1.375       .  A
S391        C392   1.725   1_545  A
C392        C393   1.382   1_554  A
C393        H399   1.082       .  S
S394        C395   1.721       .  A
C395        C396   1.388   1_556  A
C396        H400   1.083   1_565  S
H397        C930   1.083   1_545  S
C401        C406   1.387       .  A
C401        C402   1.398       .  A
C401        S407   1.714       .  A
C402        C403   1.403       .  A
C402        H413   1.083       .  S
C403        C412   1.363       .  A
C403        C404   1.384       .  A
C404        C405   1.411   1_655  A
C404        S410   1.729   1_654  A
C405        C406   1.414   1_455  A
C405       H1502   1.083   1_554  S
C406        C409   1.377   1_655  A
S407        C408   1.717       .  A
C408        C409   1.394   1_655  A
C409       H1503   1.082   1_554  S
S410        C411   1.728   1_456  A
C411        C412   1.391       .  A
C412        H416   1.083       .  S
H414        C949   1.082   1_455  S
H415        C953   1.079       .  S
C417        C422   1.387       .  A
C417        C418   1.398       .  A
C417        S423   1.705       .  A
C418        C419   1.401       .  A
C418        H429   1.083       .  S
C419        C428   1.366       .  A
C419        C420   1.385       .  A
C420        C421   1.400       .  A
C420        S426   1.707       .  A
C421        C422   1.402       .  A
C421        H430   1.083       .  S
C422        C425   1.367       .  A
S423        C424   1.722       .  A
C424        C425   1.387       .  A
C425        H431   1.083       .  S
S426        C427   1.725       .  A
C427        C428   1.380       .  A
C428        H432   1.078       .  S
C433        C438   1.389       .  A
C433        C434   1.395       .  A
C433        S439   1.694       .  A
C434        C435   1.394       .  A
C434        H445   1.083       .  S
C435        C444   1.365       .  A
C435        C436   1.387       .  A
C436        C437   1.405       .  A
C436        S442   1.706       .  A
C437        C438   1.405       .  A
C437        H446   1.083   1_565  S
C438        C441   1.376       .  A
S439        C440   1.716       .  A
C440        C441   1.385       .  A
C441        H447   1.082       .  S
S442        C443   1.726       .  A
C443        C444   1.382       .  A
C444        H448   1.083       .  S
C449        C454   1.386   1_554  A
C449        C450   1.408       .  A
C449        S455   1.724       .  A
C450        C451   1.411   1_554  A
C450        H461   1.083       .  S
C451        C460   1.376       .  A
C451        C452   1.383       .  A
C452        C453   1.415       .  A
C452        S458   1.733       .  A
C453        C454   1.417       .  A
C453       H1550   1.082       .  S
C454        C457   1.383       .  A
S455        C456   1.724       .  A
C456        C457   1.397   1_554  A
C457        H463   1.081       .  S
S458        C459   1.732       .  A
C459        C460   1.400       .  A
C460        H464   1.083   1_556  S
H462        C997   1.077       .  S
C465        C470   1.387       .  A
C465        C466   1.401       .  A
C465        S471   1.694       .  A
C466        C467   1.400       .  A
C466        H477   1.082       .  S
C467        C476   1.374       .  A
C467        C468   1.387   1_554  A
C468       C1557   1.396       .  A
C468       S1562   1.688       .  A
C469       C1012   1.413       .  A
C469       C1014   1.414       .  A
C469        H478   1.082       .  S
C470        C473   1.367   1_554  A
C470       C1557   1.393   1_554  A
S471        C472   1.726       .  A
C472        C473   1.382   1_554  A
C473       H1567   1.082       .  S
S474       C1012   1.723       .  A
S474       C1019   1.730       .  A
C475        C476   1.386       .  A
C475       S1562   1.721   1_554  A
C476        H480   1.083       .  S
H479       C1017   1.082       .  S
C481        C486   1.387       .  A
C481        C482   1.395       .  A
C481        S487   1.689       .  A
C482        C483   1.393       .  A
C482        H493   1.083       .  S
C483        C492   1.368       .  A
C483        C484   1.387       .  A
C484        C485   1.410       .  A
C484        S490   1.711       .  A
C485        C486   1.408       .  A
C485        H494   1.083       .  S
C486        C489   1.384       .  A
S487        C488   1.720       .  A
C488        C489   1.391       .  A
C489        H495   1.083       .  S
S490        C491   1.728       .  A
C491        C492   1.378       .  A
C492        H496   1.083       .  S
C497        C502   1.387       .  A
C497        C498   1.405       .  A
C497        S503   1.706       .  A
C498        C499   1.404       .  A
C498        H509   1.083       .  S
C499        C508   1.378       .  A
C499        C500   1.387       .  A
C500        C501   1.404       .  A
C500        S506   1.703       .  A
C501        C502   1.403       .  A
C501        H510   1.083       .  S
C502        C505   1.376       .  A
S503        C504   1.724       .  A
C504        C505   1.385       .  A
C505        H511   1.083       .  S
S506        C507   1.727       .  A
C507        C508   1.389       .  A
C508        H512   1.083       .  S
C513        C518   1.388       .  A
C513        C514   1.402       .  A
C513        S519   1.706       .  A
C514        C515   1.403       .  A
C514        H525   1.083       .  S
C515        C524   1.371       .  A
C515        C516   1.385       .  A
C516        C517   1.406       .  A
C516       S1610   1.713       .  A
C517        C518   1.406       .  A
C517       H1614   1.082       .  S
C518       C1609   1.378       .  A
S519       C1608   1.723       .  A
C520        C521   1.402       .  A
C520       S1063   1.727       .  A
C521       C1062   1.396       .  A
C521        H527   1.082       .  S
S522       C1060   1.729       .  A
S522       C1067   1.737       .  A
C523        C524   1.391       .  A
C523       S1610   1.726       .  A
C524        H528   1.083       .  S
H526       C1061   1.082       .  S
C529        C530   1.404       .  A
C529       C1078   1.387       .  A
C529        S535   1.708       .  A
C530        C531   1.404       .  A
C530        H541   1.083       .  S
C531        C540   1.375       .  A
C531       C1076   1.388       .  A
C532        C533   1.400       .  A
C532       C1619   1.386       .  A
C532        S538   1.700       .  A
C533        C534   1.399       .  A
C533        H542   1.083       .  S
C534        C537   1.374       .  A
C534       C1617   1.387       .  A
S535        C536   1.725       .  A
C536       C1081   1.383       .  A
C537       C1624   1.382       .  A
C537        H543   1.082       .  S
S538       C1627   1.717       .  A
C539        C540   1.385       .  A
C539       S1082   1.719       .  A
C540        H544   1.083       .  S
C545        C547   1.552       .  S
C545        C549   1.558       .  S
C545        C548   1.556       .  S
C545        C569   1.674       .  S
C546        C550   1.556       .  S
C546        C552   1.578       .  S
C546        C551   1.540       .  S
C546        C568   1.684       .  S
C547        C555   1.380       .  A
C547       C1094   1.419       .  A
C548        C559   1.388       .  A
C548       C1095   1.422       .  A
C549        C563   1.379       .  A
C549       C1096   1.420       .  A
C550        C553   1.379       .  A
C551        C557   1.373       .  A
C552        C560   1.399       .  A
C553        N554   1.362       .  A
C553        H566   1.080       .  S
N554        N698   1.424       .  S
C555       N1098   1.361       .  A
C555        H556   1.079       .  S
C557        H567   1.081       .  S
N558       C1101   1.361       .  A
N558        C559   1.359       .  A
N558       C1080   1.452       .  S
C559        H565   1.081       .  S
C560        H562   1.081       .  S
N561       C1104   1.367       .  A
N561        C563   1.363       .  A
N561       C1064   1.459       .  S
C563        H564   1.081       .  S
C568        C570   1.563       .  S
C568        C572   1.555       .  S
C568        C571   1.573       .  S
C569        C573   1.568       .  S
C569        C575   1.548       .  S
C569        C574   1.544       .  S
C570        C578   1.386       .  A
C570        C573   1.432       .  A
C571        C582   1.397       .  A
C571        C574   1.417       .  A
C572        C586   1.375       .  A
C572        C575   1.422       .  A
C573        C576   1.388       .  A
C574        C580   1.371       .  A
C575        C583   1.378       .  A
C576        N577   1.363       .  A
C576        H589   1.078       .  S
N577        C578   1.359       .  A
N577        N721   1.425       .  S
C578        H579   1.078       .  S
C580        N581   1.355       .  A
C580        H590   1.081       .  S
N581        C582   1.364       .  A
N581       C1048   1.448       .  S
C582        H588   1.079       .  S
C583        N584   1.358       .  A
C583        H585   1.081       .  S
N584        C586   1.358       .  A
N584       C1035   1.442       .  S
C586        H587   1.078       .  S
C591       C1137   1.576       .  S
C591       C1139   1.556       .  S
C591       C1138   1.548       .  S
C591        C614   1.705       .  S
C592        C596   1.579       .  S
C592        C598   1.559       .  S
C592        C597   1.544       .  S
C592        C615   1.697       .  S
C593        C596   1.443       .  A
C594        C597   1.419       .  A
C595        C598   1.432       .  A
C596        C599   1.388       .  A
C597        C603   1.375       .  A
C598        C606   1.384       .  A
C599        N600   1.363       .  A
C599        H612   1.077       .  S
N600        N744   1.422       .  S
C601       C1137   1.390       .  A
C601       N1144   1.361       .  A
C601        H602   1.077       .  S
C603        N604   1.357       .  A
C603        H613   1.080       .  S
N604       C1000   1.433       .  S
C605       C1138   1.367       .  A
C605       N1148   1.350       .  A
C605        H611   1.079       .  S
C606        N607   1.354       .  A
C606        H608   1.080       .  S
N607       C1016   1.452       .  S
C609       C1139   1.380       .  A
C609       N1151   1.362       .  A
C609        H610   1.081       .  S
C614        C616   1.558       .  S
C614        C618   1.593       .  S
C614        C617   1.560       .  S
C615        C619   1.559       .  S
C615        C621   1.579       .  S
C615        C620   1.563       .  S
C616        C624   1.382       .  A
C616        C619   1.422       .  A
C617        C628   1.384       .  A
C617        C620   1.420       .  A
C618        C632   1.406       .  A
C618        C621   1.433       .  A
C619        C622   1.383       .  A
C620        C626   1.390       .  A
C621        C629   1.398       .  A
C622        N623   1.363       .  A
C622        H635   1.080       .  S
N623        C624   1.362       .  A
N623        N767   1.423       .  S
C624        H625   1.080       .  S
C626        N627   1.363       .  A
C626        H636   1.080       .  S
N627        C628   1.364       .  A
N627        C984   1.456       .  S
C628        H634   1.081       .  S
C629        N630   1.366       .  A
C629        H631   1.082       .  S
N630        C632   1.371       .  A
N630        C971   1.473       .  S
C632        H633   1.078       .  S
O637       Ni643   2.010   1_465  S
O637       C1202   1.297       .  A
O638       Ni661   1.913       .  S
O638        C647   1.278       .  A
O639       Ni661   1.992       .  S
O639       Ni655   1.976       .  S
O639        H662   0.949       .  S
C640        O657   1.266       .  A
C640        O649   1.264       .  A
C640        C955   1.463       .  S
O641       Ni660   1.967       .  S
O641        C647   1.287       .  A
O642       Ni660   1.827       .  S
O642        C644   1.251       .  A
Ni643       O646   1.926       .  S
Ni643       O648   1.900   1_545  S
Ni643      O1183   1.899   1_545  S
C644        O654   1.263   1_655  A
C644        C676   1.475       .  S
O645       Ni661   1.949       .  S
O645        C651   1.276   1_565  A
O646       C1195   1.273       .  A
C647       C1019   1.492       .  S
O648        C650   1.249       .  A
O649       Ni660   1.907       .  S
C650        O656   1.262       .  A
C650        C670   1.444       .  S
C651       C1067   1.502       .  S
H652       O1197   0.956       .  S
O653       Ni661   1.966       .  S
O653       Ni655   1.966       .  S
O653       Ni660   1.876       .  S
O654       Ni655   1.891   1_455  S
Ni655       O659   1.903   1_655  S
Ni655       O657   1.923       .  S
O656      Ni1205   1.902       .  S
C658        O659   1.272       .  A
C658        C939   1.477       .  S
O663       Ni669   1.860   1_565  S
O663        C684   1.270       .  A
O664       Ni687   1.957       .  S
O664        C673   1.289       .  A
O665       Ni669   1.922   1_665  S
O665       Ni687   1.935       .  S
O665       Ni681   1.951       .  S
O665        H688   0.955       .  S
C666        O683   1.290       .  A
C666        O675   1.284       .  A
C666        C920   1.493       .  S
O667       Ni686   1.945       .  S
O667        C673   1.284       .  A
O668       Ni686   1.838       .  S
O668        C670   1.251       .  A
Ni669       O672   1.919   1_455  S
Ni669       O674   1.850   1_545  S
C670        O680   1.262       .  A
O671       Ni687   1.919   1_545  S
O671        C677   1.266       .  A
O672        C677   1.265       .  A
C673        C987   1.487       .  S
O674        C676   1.255   1_455  A
O675       Ni686   1.936       .  S
C676        O682   1.301       .  A
C677       C1032   1.467       .  S
H678        O679   0.960       .  S
O679       Ni687   1.860       .  S
O679       Ni681   1.997       .  S
O679       Ni686   1.883       .  S
O680       Ni681   1.867       .  S
Ni681       O685   1.981   1_655  S
Ni681       O683   1.971       .  S
O682       Ni687   1.941       .  S
C684        O685   1.297       .  A
C684        C904   1.471       .  S
C689       C1235   1.564       .  S
C689       C1237   1.548   1_455  S
C689       C1236   1.560       .  S
C689        C713   1.695       .  S
C690        C694   1.566       .  S
C690        C696   1.556   1_455  S
C690        C695   1.565       .  S
C690        C712   1.704       .  S
C691        C694   1.436       .  A
C692        C703   1.392       .  A
C692        C695   1.425       .  A
C693        C707   1.370       .  A
C693        C696   1.425       .  A
C694        C697   1.382   1_455  A
C695        C701   1.382       .  A
C696        C704   1.376       .  A
C697        N698   1.362       .  A
C697        H710   1.078       .  S
C699       C1235   1.384   1_655  A
C699       N1242   1.363       .  A
C699        H700   1.078       .  S
C701        N702   1.364       .  A
C701        H711   1.081       .  S
N702        C703   1.366       .  A
N702        C891   1.458       .  S
C704        N705   1.358       .  A
C704        H706   1.080       .  S
N705        C707   1.353       .  A
N705        C952   1.431       .  S
H708       C1251   1.080       .  S
H709       C1247   1.080       .  S
C712        C714   1.570   1_455  S
C712        C716   1.568       .  S
C712        C715   1.565       .  S
C713        C717   1.559   1_455  S
C713        C719   1.568       .  S
C713        C718   1.553       .  S
C714        C722   1.387       .  A
C714        C717   1.425       .  A
C715        C726   1.384       .  A
C715        C718   1.425       .  A
C716        C730   1.388       .  A
C716        C719   1.431       .  A
C717        C720   1.382       .  A
C718        C724   1.381       .  A
C719        C727   1.386       .  A
C720        N721   1.362       .  A
C720        H733   1.080       .  S
N721        C722   1.367       .  A
C722        H723   1.080       .  S
C724        N725   1.358       .  A
C724        H734   1.081       .  S
N725        C726   1.364       .  A
N725        C875   1.451       .  S
C726        H732   1.080       .  S
C727        N728   1.359       .  A
C727        H729   1.081       .  S
N728        C730   1.360       .  A
N728        C923   1.444       .  S
C730        H731   1.081       .  S
C735        C737   1.555       .  S
C735        C739   1.565       .  S
C735        C738   1.561   1_545  S
C735        C758   1.701       .  S
C736        C740   1.558       .  S
C736        C742   1.571       .  S
C736        C741   1.577       .  S
C736        C759   1.702       .  S
C737        C745   1.379       .  A
C738        C749   1.381       .  A
C739        C753   1.389       .  A
C740       C1281   1.421       .  A
C740        C743   1.384   1_545  A
C741       C1282   1.433       .  A
C741        C747   1.398   1_545  A
C742       C1283   1.430       .  A
C742        C750   1.392       .  A
C743       N1288   1.362       .  A
C743        H756   1.080       .  S
N744        C745   1.360   1_565  A
C745        H746   1.080   1_545  S
C747       N1292   1.362       .  A
C747        H757   1.080       .  S
N748        C749   1.356       .  A
N748        C936   1.439       .  S
C749        H755   1.079       .  S
C750       N1295   1.365       .  A
C750        H752   1.082       .  S
N751        C753   1.363       .  A
N751        C859   1.446       .  S
C753        H754   1.082       .  S
C758        C760   1.566   1_545  S
C758        C762   1.552       .  S
C758        C761   1.552       .  S
C759        C763   1.569   1_545  S
C759        C765   1.549       .  S
C759        C764   1.548       .  S
C760        C768   1.385       .  A
C760        C763   1.447       .  A
C761        C772   1.371       .  A
C761        C764   1.424       .  A
C762        C776   1.378       .  A
C762        C765   1.426       .  A
C763        C766   1.386       .  A
C764        C770   1.366       .  A
C765        C773   1.372       .  A
C766        N767   1.358       .  A
C766        H779   1.077       .  S
N767        C768   1.357       .  A
C768        H769   1.078       .  S
C770        N771   1.361       .  A
C770        H780   1.082       .  S
N771        C772   1.363       .  A
N771        C840   1.439       .  S
C772        H778   1.080       .  S
C773        N774   1.351       .  A
C773        H775   1.080       .  S
N774        C776   1.354       .  A
N774        C907   1.428       .  S
C776        H777   1.080       .  S
O781       Ni787   1.934       .  S
O781        C802   1.277       .  A
O782       Ni805   1.878       .  S
O782        C791   1.262       .  A
O783       Ni787   1.930       .  S
O783       Ni805   1.918       .  S
O783       Ni799   2.037       .  S
C784       O1345   1.295       .  A
C784        O793   1.286       .  A
C784       C1083   1.500       .  S
O785       Ni804   1.961       .  S
O785       C1335   1.281       .  A
O786       Ni804   1.940       .  S
O786        C788   1.279       .  A
Ni787       O790   1.933       .  S
Ni787       O792   1.848       .  S
C788        O798   1.201       .  A
C788        C820   1.441       .  S
O789       Ni805   1.947       .  S
O789        C795   1.277       .  A
O790        C795   1.272       .  A
C791       C1003   1.445       .  S
O792        C794   1.251       .  A
O793       Ni804   1.955       .  S
C794        O800   1.264       .  A
C794        C814   1.470       .  S
C795        C888   1.490       .  S
H796        O797   0.961       .  S
O797       Ni805   1.908       .  S
O797       Ni799   1.966       .  S
O798      Ni1343   1.795       .  S
Ni799       O803   1.960       .  S
Ni799       O801   1.938       .  S
O800       Ni805   1.861       .  S
C802        O803   1.282       .  A
C802        C856   1.500       .  S
Ni804      O1341   1.879       .  S
H806       O1327   0.946       .  S
O807       Ni813   1.974       .  S
O807        C828   1.288       .  A
O808       Ni831   2.028       .  S
O808        C817   1.299       .  A
O809       Ni813   1.893       .  S
O809       Ni831   1.948       .  S
O809       Ni825   1.900       .  S
O809        H832   0.965       .  S
C810        O827   1.275       .  A
C810        O819   1.274       .  A
C810       C1051   1.484       .  S
O811       Ni830   1.928       .  S
O811        C817   1.274       .  A
O812       Ni830   1.855       .  S
O812        C814   1.266       .  A
Ni813       O816   1.997       .  S
Ni813       O818   1.943       .  S
C814        O824   1.252       .  A
O815       Ni831   1.947       .  S
O815        C821   1.294       .  A
O816        C821   1.301       .  A
C817        C968   1.536       .  S
O818        C820   1.263       .  A
O819       Ni830   1.930       .  S
C820        O826   1.208       .  A
C821        C872   1.488       .  S
H822        O823   0.957       .  S
O823       Ni831   2.030       .  S
O823       Ni825   1.915       .  S
O823       Ni830   1.902       .  S
O824       Ni825   1.861       .  S
Ni825       O829   1.860       .  S
Ni825       O827   1.943       .  S
O826       Ni831   1.802       .  S
C828        O829   1.263       .  A
C828        C843   1.459       .  S
C833        C838   1.387       .  A
C833        C834   1.397       .  A
C833        S839   1.695       .  A
C834        C835   1.397       .  A
C834        H845   1.081       .  S
C835        C844   1.369       .  A
C835        C836   1.387       .  A
C836        C837   1.397       .  A
C836        S842   1.696       .  A
C837        C838   1.398       .  A
C837        H846   1.084       .  S
C838        C841   1.364       .  A
S839        C840   1.727       .  A
C840        C841   1.389       .  A
C841        H847   1.081       .  S
S842        C843   1.717       .  A
C843        C844   1.382       .  A
C844        H848   1.083       .  S
C849        C854   1.384       .  A
C849        C850   1.415       .  A
C849        S855   1.729       .  A
C850        C851   1.416       .  A
C850        H861   1.082       .  S
C851        C860   1.385       .  A
C852       C1395   1.387       .  A
C852        C853   1.412       .  A
C852        S858   1.719       .  A
C853       C1398   1.411       .  A
C853        H862   1.082       .  S
S855        C856   1.732       .  A
C857       C1398   1.387       .  A
C857       C1400   1.397       .  A
C857        H863   1.082       .  S
S858       C1403   1.726       .  A
C859        C860   1.395       .  A
C860        H864   1.082       .  S
C865        C870   1.386       .  A
C865        C866   1.404       .  A
C865        S871   1.711       .  A
C866        C867   1.404       .  A
C866        H877   1.082       .  S
C867        C876   1.376       .  A
C867        C868   1.385       .  A
C868        C869   1.412       .  A
C868        S874   1.718       .  A
C869        C870   1.412       .  A
C869        H878   1.083       .  S
C870        C873   1.384       .  A
S871        C872   1.722       .  A
C872        C873   1.395       .  A
C873        H879   1.083       .  S
S874        C875   1.733       .  A
C875        C876   1.390       .  A
C876        H880   1.080       .  S
C881        C886   1.385       .  A
C881        C882   1.414       .  A
C881        S887   1.718       .  A
C882        C883   1.413       .  A
C882        H893   1.083       .  S
C883        C892   1.389       .  A
C883        C884   1.385       .  A
C885       C1428   1.405       .  A
C885       C1430   1.405       .  A
C885        H894   1.083       .  S
C886        C889   1.383       .  A
S887        C888   1.727       .  A
C888        C889   1.392       .  A
S890       C1428   1.712       .  A
S890       C1435   1.728       .  A
C891        C892   1.400       .  A
C892        H896   1.082       .  S
H895       C1433   1.082       .  S
C897        C902   1.383   1_565  A
C897        C898   1.406       .  A
C897        S903   1.724       .  A
C898        C899   1.410   1_565  A
C898        H909   1.083       .  S
C899        C908   1.368       .  A
C899        C900   1.387       .  A
C900        C901   1.391       .  A
C900        S906   1.706       .  A
C901        C902   1.397       .  A
C901        H910   1.083       .  S
C902        C905   1.351   1_545  A
S903        C904   1.726       .  A
C904        C905   1.389       .  A
C905        H911   1.084   1_565  S
S906        C907   1.715       .  A
C907        C908   1.389       .  A
C908        H912   1.082   1_545  S
C913        C918   1.386   1_655  A
C913        C914   1.407       .  A
C913        S919   1.710       .  A
C914        C915   1.406       .  A
C914        H925   1.083       .  S
C915        C924   1.379       .  A
C915        C916   1.387   1_655  A
C916        C917   1.411       .  A
C916        S922   1.720       .  A
C917        C918   1.410       .  A
C917        H926   1.082       .  S
C918        C921   1.384       .  A
S919        C920   1.730       .  A
C920        C921   1.394   1_655  A
C921        H927   1.082       .  S
S922        C923   1.724       .  A
C923        C924   1.389   1_455  A
C924        H928   1.083       .  S
C929        C934   1.388       .  A
C929        C930   1.405       .  A
C929        S935   1.708   1_565  A
C930        C931   1.405       .  A
C931        C940   1.376       .  A
C931        C932   1.387       .  A
C932        C933   1.405       .  A
C932        S938   1.709       .  A
C933        C934   1.405       .  A
C933        H942   1.083       .  S
C934        C937   1.378       .  A
S935        C936   1.725   1_545  A
C936        C937   1.387       .  A
C937        H943   1.082       .  S
S938        C939   1.727       .  A
C939        C940   1.388       .  A
C940        H944   1.083   1_565  S
H941       C1474   1.082       .  S
C945        C950   1.387       .  A
C945        C946   1.392       .  A
C945        S951   1.704       .  A
C946        C947   1.397       .  A
C946        H957   1.082       .  S
C947        C956   1.355       .  A
C947        C948   1.386       .  A
C948        C949   1.400       .  A
C948        S954   1.714   1_655  A
C949        C950   1.405       .  A
C950        C953   1.362       .  A
S951        C952   1.718       .  A
C952        C953   1.389       .  A
S954        C955   1.723   1_455  A
C955        C956   1.380       .  A
C956        H960   1.080       .  S
H958       C1493   1.083       .  S
H959       C1497   1.083   1_455  S
C961        C966   1.380       .  A
C961        C962   1.430       .  A
C961        S967   1.750       .  A
C962        C963   1.430       .  A
C962        H973   1.082       .  S
C963        C972   1.406       .  A
C963        C964   1.384       .  A
C964        C965   1.414       .  A
C964        S970   1.727       .  A
C965        C966   1.415       .  A
C965        H974   1.083       .  S
C966        C969   1.387       .  A
S967        C968   1.742       .  A
C968        C969   1.407       .  A
C969        H975   1.083       .  S
S970        C971   1.730       .  A
C971        C972   1.410       .  A
C972        H976   1.082       .  S
C977        C982   1.386       .  A
C977        C978   1.405       .  A
C977        S983   1.709       .  A
C978        C979   1.404       .  A
C978        H989   1.083       .  S
C979        C988   1.376       .  A
C979        C980   1.385       .  A
C980        C981   1.413       .  A
C980        S986   1.720       .  A
C981        C982   1.414       .  A
C981        H990   1.083       .  S
C982        C985   1.386       .  A
S983        C984   1.728       .  A
C984        C985   1.400       .  A
C985        H991   1.082       .  S
S986        C987   1.727       .  A
C987        C988   1.390       .  A
C988        H992   1.083       .  S
C993        C998   1.384       .  A
C993        C994   1.404       .  A
C993        S999   1.711       .  A
C994        C995   1.405       .  A
C994       H1005   1.083       .  S
C995       C1004   1.363       .  A
C995        C996   1.386       .  A
C996        C997   1.378       .  A
C996       S1002   1.687       .  A
C997        C998   1.386       .  A
C998       C1001   1.346       .  A
S999       C1000   1.730       .  A
C1000      C1001   1.378       .  A
C1001      H1007   1.078       .  S
S1002      C1003   1.711       .  A
C1003      C1004   1.385       .  A
C1004      H1008   1.082       .  S
H1006      C1541   1.083       .  S
C1009      C1014   1.386       .  A
C1009      C1010   1.405       .  A
C1009      S1015   1.711       .  A
C1010      C1011   1.405       .  A
C1010      H1021   1.082       .  S
C1011      C1020   1.376       .  A
C1011      C1012   1.385       .  A
C1013      C1556   1.409       .  A
C1013      C1558   1.410       .  A
C1013      H1022   1.083       .  S
C1014      C1017   1.386       .  A
S1015      C1016   1.723       .  A
C1016      C1017   1.398       .  A
S1018      C1556   1.719       .  A
S1018      C1563   1.729       .  A
C1019      C1020   1.393       .  A
C1020      H1024   1.083       .  S
H1023      C1561   1.082       .  S
C1025      C1030   1.387       .  A
C1025      C1026   1.399       .  A
C1025      S1031   1.706       .  A
C1026      C1027   1.401       .  A
C1026      H1037   1.083       .  S
C1027      C1036   1.369       .  A
C1027      C1028   1.386       .  A
C1028      C1029   1.402       .  A
C1028      S1034   1.706       .  A
C1029      C1030   1.403       .  A
C1029      H1038   1.083       .  S
C1030      C1033   1.370       .  A
S1031      C1032   1.718       .  A
C1032      C1033   1.387       .  A
C1033      H1039   1.082       .  S
S1034      C1035   1.727       .  A
C1035      C1036   1.390       .  A
C1036      H1040   1.082       .  S
C1041      C1046   1.386       .  A
C1041      C1042   1.398       .  A
C1041      S1047   1.698       .  A
C1042      C1043   1.397       .  A
C1042      H1053   1.079       .  S
C1043      C1052   1.372       .  A
C1043      C1044   1.385       .  A
C1044      C1045   1.415       .  A
C1044      S1050   1.721       .  A
C1045      C1046   1.414       .  A
C1045      H1054   1.083       .  S
C1046      C1049   1.388       .  A
S1047      C1048   1.725       .  A
C1048      C1049   1.397       .  A
C1049      H1055   1.082       .  S
S1050      C1051   1.731       .  A
C1051      C1052   1.385       .  A
C1052      H1056   1.082       .  S
C1057      C1062   1.386       .  A
C1057      C1058   1.402       .  A
C1057      S1063   1.701       .  A
C1058      C1059   1.401       .  A
C1058      H1069   1.083       .  S
C1059      C1068   1.377       .  A
C1059      C1060   1.384       .  A
C1060      C1061   1.422       .  A
C1061      C1062   1.420       .  A
C1064      C1065   1.402       .  A
C1064      S1607   1.727       .  A
C1065      C1606   1.392       .  A
C1065      H1071   1.082       .  S
S1066      C1604   1.725       .  A
S1066      C1611   1.731       .  A
C1067      C1068   1.389       .  A
C1068      H1072   1.081       .  S
H1070      C1605   1.083       .  S
C1073      C1622   1.385       .  A
C1073      C1074   1.411       .  A
C1073      S1079   1.722       .  A
C1074      C1075   1.412       .  A
C1074      H1085   1.083       .  S
C1075      C1084   1.379       .  A
C1075      C1620   1.383       .  A
C1076      C1077   1.399       .  A
C1076      S1082   1.702       .  A
C1077      C1078   1.399       .  A
C1077      H1086   1.083       .  S
C1078      C1081   1.368       .  A
S1079      C1080   1.728       .  A
C1080      C1625   1.395       .  A
C1081      H1087   1.083       .  S
C1083      C1084   1.398       .  A
C1083      S1626   1.726       .  A
C1084      H1088   1.083       .  S
C1089      C1091   1.568       .  S
C1089      C1093   1.555       .  S
C1089      C1092   1.573       .  S
C1089      C1113   1.727       .  S
C1090      C1094   1.569       .  S
C1090      C1096   1.574       .  S
C1090      C1095   1.575       .  S
C1090      C1112   1.687       .  S
C1091      C1099   1.386       .  A
C1092      C1103   1.390       .  A
C1093      C1107   1.381       .  A
C1094      C1097   1.390       .  A
C1095      C1101   1.391       .  A
C1096      C1104   1.398       .  A
C1097      N1098   1.366       .  A
C1097      H1110   1.079       .  S
N1098      N1242   1.426       .  S
C1099      H1100   1.079       .  S
C1101      H1111   1.079       .  S
N1102      C1103   1.343   1_554  A
N1102      C1624   1.439       .  S
C1103      H1109   1.075       .  S
C1104      H1106   1.081       .  S
N1105      C1107   1.358   1_554  A
N1105      C1608   1.434       .  S
C1107      H1108   1.079       .  S
C1112      C1114   1.573       .  S
C1112      C1116   1.541       .  S
C1112      C1115   1.569       .  S
C1113      C1117   1.559       .  S
C1113      C1119   1.578       .  S
C1113      C1118   1.574       .  S
C1114      C1122   1.386       .  A
C1114      C1117   1.426       .  A
C1115      C1126   1.389       .  A
C1115      C1118   1.439       .  A
C1116      C1130   1.376       .  A
C1116      C1119   1.421       .  A
C1117      C1120   1.382       .  A
C1118      C1124   1.393       .  A
C1119      C1127   1.393       .  A
C1120      N1121   1.363       .  A
C1120      H1133   1.079       .  S
N1121      C1122   1.364       .  A
N1121      N1265   1.425       .  S
C1122      H1123   1.079       .  S
C1124      N1125   1.344       .  A
C1124      H1134   1.074       .  S
N1125      C1126   1.348       .  A
N1125      C1592   1.442       .  S
C1126      H1132   1.080       .  S
C1127      N1128   1.367       .  A
C1127      H1129   1.080       .  S
N1128      C1130   1.355       .  A
N1128      C1579   1.451       .  S
C1130      H1131   1.079       .  S
C1135      C1158   1.715       .  S
C1136      C1140   1.560       .  S
C1136      C1142   1.543       .  S
C1136      C1141   1.553       .  S
C1136      C1159   1.692       .  S
C1137      C1140   1.447       .  A
C1138      C1141   1.433       .  A
C1139      C1142   1.419       .  A
C1140      C1143   1.382       .  A
C1141      C1147   1.375       .  A
C1142      C1150   1.376       .  A
C1143      N1144   1.355       .  A
C1143      H1156   1.078       .  S
N1144      N1288   1.424       .  S
C1145      H1146   1.079       .  S
C1147      N1148   1.351       .  A
C1147      H1157   1.080       .  S
N1148      C1544   1.421       .  S
C1149      H1155   1.075       .  S
C1150      N1151   1.356       .  A
C1150      H1152   1.081       .  S
N1151      C1560   1.443       .  S
C1153      H1154   1.080       .  S
C1158      C1160   1.567       .  S
C1158      C1162   1.569       .  S
C1158      C1161   1.578       .  S
C1159      C1163   1.549       .  S
C1159      C1165   1.549       .  S
C1159      C1164   1.556       .  S
C1160      C1168   1.384       .  A
C1160      C1163   1.424       .  A
C1161      C1172   1.390       .  A
C1161      C1164   1.432       .  A
C1162      C1176   1.383       .  A
C1162      C1165   1.426       .  A
C1163      C1166   1.375       .  A
C1164      C1170   1.380       .  A
C1165      C1173   1.376       .  A
C1166      N1167   1.359       .  A
C1166      H1179   1.079       .  S
N1167      C1168   1.366       .  A
N1167      N1311   1.420       .  S
C1168      H1169   1.080       .  S
C1170      N1171   1.361       .  A
C1170      H1180   1.081       .  S
N1171      C1172   1.366       .  A
N1171      C1528   1.455       .  S
C1172      H1178   1.080       .  S
C1173      N1174   1.354       .  A
C1173      H1175   1.081       .  S
N1174      C1176   1.360       .  A
N1174      C1515   1.441       .  S
C1176      H1177   1.076       .  S
O1181     Ni1187   1.946   1_566  S
O1182     Ni1205   1.913       .  S
O1182      C1191   1.275       .  A
O1183     Ni1205   1.975       .  S
O1183     Ni1199   1.993       .  S
O1183      H1206   0.942       .  S
C1184      O1201   1.279       .  A
C1184      O1193   1.276       .  A
C1184      C1499   1.462       .  S
O1185     Ni1204   1.935       .  S
O1185      C1191   1.275       .  A
O1186     Ni1204   1.897       .  S
O1186      C1188   1.259       .  A
Ni1187     O1190   1.933   1_455  S
Ni1187     O1192   1.872   1_454  S
C1188      O1198   1.230       .  A
C1188      C1220   1.447       .  S
O1189     Ni1205   1.950   1_545  S
O1189      C1195   1.278       .  A
C1191      C1563   1.477       .  S
O1192      C1194   1.260   1_545  A
O1193     Ni1204   1.918       .  S
C1194      O1200   1.244   1_565  A
C1194      C1214   1.399       .  S
C1195      C1611   1.493       .  S
O1197     Ni1205   1.928       .  S
O1197     Ni1199   1.961       .  S
O1197     Ni1204   1.921       .  S
O1198     Ni1199   1.858       .  S
Ni1199     O1203   1.910   1_655  S
Ni1199     O1201   1.938       .  S
C1202      O1203   1.269       .  A
C1202      C1483   1.513       .  S
O1207     Ni1213   1.881       .  S
O1207      C1228   1.268   1_545  A
O1208     Ni1231   1.935       .  S
O1208      C1217   1.277       .  A
O1209     Ni1213   1.901   1_665  S
O1209     Ni1231   1.938       .  S
O1209     Ni1225   1.931       .  S
O1209      H1232   0.948   1_565  S
C1210      O1227   1.266       .  A
C1210      O1219   1.286       .  A
C1210      C1464   1.511       .  S
O1211     Ni1230   1.941       .  S
O1211      C1217   1.281       .  A
O1212     Ni1230   1.862       .  S
O1212      C1214   1.252       .  A
Ni1213     O1216   1.928   1_455  S
Ni1213     O1218   1.887   1_545  S
C1214      O1224   1.277       .  A
O1215     Ni1231   1.896   1_545  S
O1215      C1221   1.262       .  A
O1216      C1221   1.275       .  A
C1217      C1531   1.486       .  S
O1218      C1220   1.265   1_455  A
O1219     Ni1230   1.985       .  S
C1220      O1226   1.297       .  A
C1221      C1576   1.490       .  S
H1222      O1223   0.949       .  S
O1223     Ni1231   1.899       .  S
O1223     Ni1225   1.991       .  S
O1223     Ni1230   1.862       .  S
O1224     Ni1225   1.882       .  S
Ni1225     O1229   1.959   1_655  S
Ni1225     O1227   1.908       .  S
O1226     Ni1231   1.896       .  S
C1228      O1229   1.284       .  A
C1228      C1448   1.465       .  S
C1233      C1257   1.701       .  S
C1234      C1238   1.573       .  S
C1234      C1240   1.559   1_455  S
C1234      C1239   1.562       .  S
C1234      C1256   1.702       .  S
C1235      C1238   1.434       .  A
C1236      C1247   1.383       .  A
C1236      C1239   1.423       .  A
C1237      C1251   1.371       .  A
C1237      C1240   1.430       .  A
C1238      C1241   1.389   1_455  A
C1239      C1245   1.384       .  A
C1240      C1248   1.380       .  A
C1241      N1242   1.363       .  A
C1241      H1254   1.078       .  S
C1243      H1244   1.078       .  S
C1245      N1246   1.365       .  A
C1245      H1255   1.082       .  S
N1246      C1247   1.362       .  A
N1246      C1435   1.453       .  S
C1248      N1249   1.357       .  A
C1248      H1250   1.079       .  S
N1249      C1251   1.350       .  A
N1249      C1496   1.427       .  S
C1256      C1258   1.568   1_455  S
C1256      C1260   1.578       .  S
C1256      C1259   1.555       .  S
C1257      C1261   1.562   1_455  S
C1257      C1263   1.576       .  S
C1257      C1262   1.550       .  S
C1258      C1266   1.386       .  A
C1258      C1261   1.428       .  A
C1259      C1270   1.380       .  A
C1259      C1262   1.420       .  A
C1260      C1274   1.398       .  A
C1260      C1263   1.433       .  A
C1261      C1264   1.382       .  A
C1262      C1268   1.378       .  A
C1263      C1271   1.390       .  A
C1264      N1265   1.363       .  A
C1264      H1277   1.079       .  S
N1265      C1266   1.365       .  A
C1266      H1267   1.080       .  S
C1268      N1269   1.356       .  A
C1268      H1278   1.081       .  S
N1269      C1270   1.361       .  A
N1269      C1419   1.440       .  S
C1270      H1276   1.081       .  S
C1271      N1272   1.360       .  A
C1271      H1273   1.078       .  S
N1272      C1274   1.365       .  A
N1272      C1467   1.460       .  S
C1274      H1275   1.080       .  S
C1279      C1281   1.561       .  S
C1279      C1283   1.568       .  S
C1279      C1282   1.570       .  S
C1279      C1302   1.705       .  S
C1280      C1284   1.552       .  S
C1280      C1286   1.558       .  S
C1280      C1285   1.564   1_545  S
C1280      C1303   1.701       .  S
C1281      C1289   1.383   1_545  A
C1282      C1293   1.392   1_545  A
C1283      C1297   1.386       .  A
C1284      C1287   1.378       .  A
C1285      C1291   1.383       .  A
C1286      C1294   1.381       .  A
C1287      H1300   1.079   1_545  S
N1288      C1289   1.365       .  A
C1289      H1290   1.080       .  S
C1291      H1301   1.081       .  S
N1292      C1293   1.359       .  A
N1292      C1480   1.457       .  S
C1293      H1299   1.079       .  S
C1294      H1296   1.082       .  S
N1295      C1297   1.361       .  A
N1295      C1403   1.450       .  S
C1297      H1298   1.081       .  S
C1302      C1304   1.563   1_545  S
C1302      C1306   1.555       .  S
C1302      C1305   1.562       .  S
C1303      C1307   1.557   1_545  S
C1303      C1309   1.544       .  S
C1303      C1308   1.558       .  S
C1304      C1312   1.383       .  A
C1304      C1307   1.439       .  A
C1305      C1316   1.376       .  A
C1305      C1308   1.443       .  A
C1306      C1320   1.379       .  A
C1306      C1309   1.423       .  A
C1307      C1310   1.382       .  A
C1308      C1314   1.377       .  A
C1309      C1317   1.373       .  A
C1310      N1311   1.355       .  A
C1310      H1323   1.079       .  S
N1311      C1312   1.359       .  A
C1312      H1313   1.078       .  S
C1314      N1315   1.356       .  A
C1314      H1324   1.083       .  S
N1315      C1316   1.351       .  A
N1315      C1384   1.425       .  S
C1316      H1322   1.080       .  S
C1317      N1318   1.350       .  A
C1317      H1319   1.082       .  S
N1318      C1320   1.354       .  A
N1318      C1451   1.427       .  S
C1320      H1321   1.079       .  S
O1325     Ni1331   1.969       .  S
O1325      C1346   1.283       .  A
O1326     Ni1349   1.844       .  S
O1326      C1335   1.255       .  A
O1327     Ni1331   1.904       .  S
O1327     Ni1349   1.906       .  S
O1327     Ni1343   2.046       .  S
C1328      O1337   1.265   1_554  A
C1328      C1627   1.461       .  S
O1329     Ni1348   1.996       .  S
O1330     Ni1348   1.863       .  S
O1330      C1332   1.263       .  A
Ni1331     O1334   1.925       .  S
Ni1331     O1336   1.881       .  S
C1332      O1342   1.246       .  A
C1332      C1364   1.449       .  S
O1333     Ni1349   1.938       .  S
O1333      C1339   1.272       .  A
O1334      C1339   1.268       .  A
C1335      C1547   1.457       .  S
O1336      C1338   1.252       .  A
O1337     Ni1348   1.914       .  S
C1338      O1344   1.259       .  A
C1338      C1358   1.473       .  S
C1339      C1432   1.482       .  S
H1340      O1341   0.961       .  S
O1341     Ni1349   1.921       .  S
O1341     Ni1343   1.950       .  S
Ni1343     O1347   1.941       .  S
Ni1343     O1345   1.965       .  S
O1344     Ni1349   1.878       .  S
C1346      O1347   1.275       .  A
C1346      C1400   1.504       .  S
O1351     Ni1357   1.898       .  S
O1351      C1372   1.276       .  A
O1352     Ni1375   1.974       .  S
O1352      C1361   1.295       .  A
O1353     Ni1357   1.921       .  S
O1353     Ni1375   1.950       .  S
O1353     Ni1369   1.930       .  S
O1353      H1376   0.953       .  S
C1354      O1371   1.274       .  A
C1354      O1363   1.278       .  A
C1354      C1595   1.485       .  S
O1355     Ni1374   1.903       .  S
O1355      C1361   1.277       .  A
O1356     Ni1374   1.845       .  S
O1356      C1358   1.253       .  A
Ni1357     O1360   1.933       .  S
Ni1357     O1362   1.849       .  S
C1358      O1368   1.263       .  A
O1359     Ni1375   1.921       .  S
O1359      C1365   1.269       .  A
O1360      C1365   1.270       .  A
C1361      C1512   1.484       .  S
O1362      C1364   1.258       .  A
O1363     Ni1374   1.942       .  S
C1364      O1370   1.299       .  A
C1365      C1416   1.476       .  S
H1366      O1367   0.961       .  S
O1367     Ni1375   1.877       .  S
O1367     Ni1369   1.987       .  S
O1367     Ni1374   1.904       .  S
O1368     Ni1369   1.872       .  S
Ni1369     O1373   1.935       .  S
Ni1369     O1371   1.930       .  S
O1370     Ni1375   1.923       .  S
C1372      O1373   1.280       .  A
C1372      C1387   1.470       .  S
C1377      C1382   1.389       .  A
C1377      C1378   1.387       .  A
C1377      S1383   1.689       .  A
C1378      C1379   1.389       .  A
C1378      H1389   1.084       .  S
C1379      C1388   1.353       .  A
C1379      C1380   1.385       .  A
C1380      C1381   1.408       .  A
C1380      S1386   1.718       .  A
C1381      C1382   1.410       .  A
C1381      H1390   1.083       .  S
C1382      C1385   1.376       .  A
S1383      C1384   1.714       .  A
C1384      C1385   1.387       .  A
C1385      H1391   1.082       .  S
S1386      C1387   1.728       .  A
C1387      C1388   1.382       .  A
C1388      H1392   1.084       .  S
C1393      C1398   1.384       .  A
C1393      C1394   1.413       .  A
C1393      S1399   1.719       .  A
C1394      C1395   1.413       .  A
C1394      H1405   1.082       .  S
C1395      C1404   1.388       .  A
C1396      C1397   1.404       .  A
C1396      S1402   1.712       .  A
C1397      H1406   1.083       .  S
S1399      C1400   1.733       .  A
C1401      H1407   1.083       .  S
C1403      C1404   1.395       .  A
C1404      H1408   1.082       .  S
C1409      C1414   1.387       .  A
C1409      C1410   1.398       .  A
C1409      S1415   1.701       .  A
C1410      C1411   1.398       .  A
C1410      H1421   1.082       .  S
C1411      C1420   1.369       .  A
C1411      C1412   1.386       .  A
C1412      C1413   1.408       .  A
C1412      S1418   1.713       .  A
C1413      C1414   1.408       .  A
C1413      H1422   1.083       .  S
C1414      C1417   1.379       .  A
S1415      C1416   1.720       .  A
C1416      C1417   1.392       .  A
C1417      H1423   1.083       .  S
S1418      C1419   1.729       .  A
C1419      C1420   1.385       .  A
C1420      H1424   1.082       .  S
C1425      C1430   1.386       .  A
C1425      C1426   1.410       .  A
C1425      S1431   1.718       .  A
C1426      C1427   1.411       .  A
C1426      H1437   1.083       .  S
C1427      C1436   1.381       .  A
C1427      C1428   1.386       .  A
C1429      H1438   1.083       .  S
C1430      C1433   1.376       .  A
S1431      C1432   1.727       .  A
C1432      C1433   1.389       .  A
C1435      C1436   1.398       .  A
C1436      H1440   1.082       .  S
C1441      C1446   1.385   1_565  A
C1441      C1442   1.404       .  A
C1441      S1447   1.715       .  A
C1442      C1443   1.406   1_565  A
C1442      H1453   1.083       .  S
C1443      C1452   1.368       .  A
C1443      C1444   1.387       .  A
C1444      C1445   1.396       .  A
C1444      S1450   1.707       .  A
C1445      C1446   1.400       .  A
C1445      H1454   1.083       .  S
C1446      C1449   1.362       .  A
S1447      C1448   1.724       .  A
C1448      C1449   1.386   1_565  A
C1449      H1455   1.084       .  S
S1450      C1451   1.715       .  A
C1451      C1452   1.387       .  A
C1452      H1456   1.082   1_545  S
C1457      C1462   1.384   1_655  A
C1457      C1458   1.414       .  A
C1457      S1463   1.727       .  A
C1458      C1459   1.416       .  A
C1458      H1469   1.083       .  S
C1459      C1468   1.388       .  A
C1459      C1460   1.385   1_655  A
C1460      C1461   1.416       .  A
C1460      S1466   1.729       .  A
C1461      C1462   1.416       .  A
C1461      H1470   1.083       .  S
C1462      C1465   1.388       .  A
S1463      C1464   1.731       .  A
C1464      C1465   1.402   1_655  A
C1465      H1471   1.083       .  S
S1466      C1467   1.730       .  A
C1467      C1468   1.398   1_455  A
C1468      H1472   1.082       .  S
C1473      C1478   1.386       .  A
C1473      C1474   1.418   1_565  A
C1473      S1479   1.723   1_565  A
C1474      C1475   1.416   1_545  A
C1475      C1484   1.397       .  A
C1475      C1476   1.385       .  A
C1476      C1477   1.415       .  A
C1476      S1482   1.718       .  A
C1477      C1478   1.413       .  A
C1477      H1486   1.083       .  S
C1478      C1481   1.392       .  A
S1479      C1480   1.732   1_545  A
C1480      C1481   1.395       .  A
C1481      H1487   1.082       .  S
S1482      C1483   1.737       .  A
C1483      C1484   1.402       .  A
C1484      H1488   1.082   1_565  S
C1489      C1494   1.387       .  A
C1489      C1490   1.398       .  A
C1489      S1495   1.710       .  A
C1490      C1491   1.402       .  A
C1490      H1501   1.083       .  S
C1491      C1500   1.365       .  A
C1491      C1492   1.386       .  A
C1492      C1493   1.401   1_655  A
C1492      S1498   1.712   1_655  A
C1493      C1494   1.403   1_455  A
C1494      C1497   1.367       .  A
S1495      C1496   1.717       .  A
C1496      C1497   1.385       .  A
S1498      C1499   1.720   1_455  A
C1499      C1500   1.385       .  A
C1500      H1504   1.084       .  S
C1505      C1510   1.383       .  A
C1505      C1506   1.408       .  A
C1505      S1511   1.724       .  A
C1506      C1507   1.411       .  A
C1506      H1517   1.081       .  S
C1507      C1516   1.375       .  A
C1507      C1508   1.386       .  A
C1508      C1509   1.398       .  A
C1508      S1514   1.709       .  A
C1509      C1510   1.403       .  A
C1509      H1518   1.083       .  S
C1510      C1513   1.362       .  A
S1511      C1512   1.723       .  A
C1512      C1513   1.395       .  A
C1513      H1519   1.084       .  S
S1514      C1515   1.723       .  A
C1515      C1516   1.392       .  A
C1516      H1520   1.079       .  S
C1521      C1526   1.386       .  A
C1521      C1522   1.405       .  A
C1521      S1527   1.714       .  A
C1522      C1523   1.406       .  A
C1522      H1533   1.082       .  S
C1523      C1532   1.373       .  A
C1523      C1524   1.384       .  A
C1524      C1525   1.409       .  A
C1524      S1530   1.719       .  A
C1525      C1526   1.411       .  A
C1525      H1534   1.083       .  S
C1526      C1529   1.380       .  A
S1527      C1528   1.729       .  A
C1528      C1529   1.398       .  A
C1529      H1535   1.081       .  S
S1530      C1531   1.725       .  A
C1531      C1532   1.386       .  A
C1532      H1536   1.079       .  S
C1537      C1542   1.388       .  A
C1537      C1538   1.392       .  A
C1537      S1543   1.708       .  A
C1538      C1539   1.397       .  A
C1538      H1549   1.083       .  S
C1539      C1548   1.355       .  A
C1539      C1540   1.386       .  A
C1540      C1541   1.398       .  A
C1540      S1546   1.713       .  A
C1541      C1542   1.403       .  A
C1542      C1545   1.358       .  A
S1543      C1544   1.710       .  A
C1544      C1545   1.384       .  A
C1545      H1551   1.083       .  S
S1546      C1547   1.720       .  A
C1547      C1548   1.382       .  A
C1548      H1552   1.084       .  S
C1553      C1558   1.386       .  A
C1553      C1554   1.397       .  A
C1553      S1559   1.702       .  A
C1554      C1555   1.399       .  A
C1554      H1565   1.082       .  S
C1555      C1564   1.366       .  A
C1555      C1556   1.386       .  A
C1557      H1566   1.083       .  S
C1558      C1561   1.376       .  A
S1559      C1560   1.720       .  A
C1560      C1561   1.395       .  A
C1563      C1564   1.385       .  A
C1564      H1568   1.083       .  S
C1569      C1574   1.385       .  A
C1569      C1570   1.412       .  A
C1569      S1575   1.729       .  A
C1570      C1571   1.415       .  A
C1570      H1581   1.083       .  S
C1571      C1580   1.381       .  A
C1571      C1572   1.386       .  A
C1572      C1573   1.401       .  A
C1572      S1578   1.712       .  A
C1573      C1574   1.404       .  A
C1573      H1582   1.083       .  S
C1574      C1577   1.368       .  A
S1575      C1576   1.730       .  A
C1576      C1577   1.391       .  A
C1577      H1583   1.084       .  S
S1578      C1579   1.724       .  A
C1579      C1580   1.400       .  A
C1580      H1584   1.082       .  S
C1585      C1590   1.386       .  A
C1585      C1586   1.409       .  A
C1585      S1591   1.712       .  A
C1586      C1587   1.408       .  A
C1586      H1597   1.083       .  S
C1587      C1596   1.381       .  A
C1587      C1588   1.386       .  A
C1588      C1589   1.405       .  A
C1588      S1594   1.708       .  A
C1589      C1590   1.405       .  A
C1589      H1598   1.083       .  S
C1590      C1593   1.379       .  A
S1591      C1592   1.729       .  A
C1592      C1593   1.387       .  A
C1593      H1599   1.082       .  S
S1594      C1595   1.727       .  A
C1595      C1596   1.392       .  A
C1596      H1600   1.083       .  S
C1601      C1606   1.386       .  A
C1601      C1602   1.402       .  A
C1601      S1607   1.704       .  A
C1602      C1603   1.402       .  A
C1602      H1613   1.083       .  S
C1603      C1612   1.373       .  A
C1603      C1604   1.384       .  A
C1604      C1605   1.417       .  A
C1605      C1606   1.418       .  A
C1608      C1609   1.385       .  A
C1609      H1615   1.082       .  S
C1611      C1612   1.390       .  A
C1612      H1616   1.082       .  S
C1617      C1618   1.407       .  A
C1617      S1623   1.708       .  A
C1618      C1619   1.405       .  A
C1618      H1629   1.083       .  S
C1619      C1628   1.378       .  A
C1620      C1621   1.410       .  A
C1620      S1626   1.725       .  A
C1621      C1622   1.412       .  A
C1621      H1630   1.078       .  S
C1622      C1625   1.383       .  A
S1623      C1624   1.729       .  A
C1625      H1631   1.081       .  S
C1627      C1628   1.388       .  A
C1628      H1632   1.083       .  S
