geometry optimzed in LAMMPS
_audit_creation_date              2020-11-30 
_audit_creation_method            'lammps2cif' 
_symmetry_space_group_name_H-M    'P1' 
_symmetry_Int_Tables_number       1 
_symmetry_cell_setting            triclinic 
loop_ 
_symmetry_equiv_pos_as_xyz 
  x,y,z 
_cell_length_a                    48.02858055 
_cell_length_b                    48.21821139281964 
_cell_length_c                    48.25713467377361 
_cell_angle_alpha                 89.9285402618688 
_cell_angle_beta                  89.95930148975998 
_cell_angle_gamma                 89.98236936785878 
loop_ 
_atom_site_label 
_atom_site_type_symbol 
_atom_site_fract_x 
_atom_site_fract_y 
_atom_site_fract_z 
_atom_site_charge 
O1          O  0.95992776  0.99551377  0.94308944    -0.78300
C2          C  0.02909767  0.94448490  0.94600998     0.82700
O3          O  0.96139257  0.96018037  0.03912060    -0.79400
O4          O  0.06282789  0.98005766  0.02200038    -0.80900
O5          O  0.02538504  0.06029393  0.97574510    -0.80700
O6          O  0.96077107  0.04012735  0.95485154    -0.79300
Zn7        Zn  0.97987437  0.97409543  0.97222212     1.55700
O8          O  0.05932194  0.02868569  0.97323774    -0.80700
Cd9        Cd  0.98989671  0.03826406  0.98747257     1.59700
Cd10       Cd  0.99335881  0.98937191  0.03478989     1.59600
O11         O  0.97502001  0.05768471  0.02367109    -0.80700
O12         O  0.00117206  0.99859375  0.99508222    -1.91200
Cd13       Cd  0.04149322  0.99191672  0.98624399     1.59900
O14         O  0.98110701  0.02483743  0.05564716    -0.80700
O15         O  0.04692435  0.96152925  0.95566281    -0.79300
C16         C  0.94594152  0.95015357  0.02012524     0.83200
C17         C  0.95281948  0.02056986  0.93882470     0.82900
O18         O  0.00343697  0.94593709  0.95239162    -0.78300
C19         C  0.05075139  0.05365367  0.97116208     0.83700
O20         O  0.95086613  0.95464874  0.99459384    -0.78400
C21         C  0.97453567  0.04959023  0.04893712     0.83800
C22         C  0.05510667  0.97518719  0.04687741     0.84100
O23         O  0.02957995  0.97660064  0.05414830    -0.80800
O24         O  0.99777166  0.29587363  0.29430544    -0.78300
C25         C  0.95083980  0.30186320  0.21897517     0.82700
O26         O  0.95723766  0.20585389  0.28651446    -0.79400
O27         O  0.97669789  0.21856060  0.18772840    -0.80900
O28         O  0.06045790  0.26819597  0.22129542    -0.80700
O29         O  0.04259286  0.28609632  0.28793680    -0.79300
Zn30       Zn  0.97590312  0.27224038  0.26851940     1.55700
O31         O  0.02889269  0.26447318  0.18757082    -0.80700
Cd32       Cd  0.03888354  0.25613334  0.25672593     1.59700
Cd33       Cd  0.98959571  0.20829847  0.25720348     1.59600
O34         O  0.05840449  0.22028570  0.26960773    -0.80700
O35         O  0.99895403  0.24780218  0.24728207    -1.91200
Cd36       Cd  0.99154308  0.25455786  0.20680679     1.59900
O37         O  0.02522703  0.18792671  0.27083114    -0.80700
O38         O  0.96313648  0.28706742  0.20079667    -0.79300
C39         C  0.94257549  0.22579200  0.29601887     0.83200
C40         C  0.02329692  0.29971766  0.29996479     0.82900
O41         O  0.95450449  0.29810909  0.24472643    -0.78300
C42         C  0.05377136  0.26911129  0.19569949     0.83700
O43         O  0.94809842  0.25089425  0.29010718    -0.78400
C44         C  0.05061723  0.19532373  0.27357930     0.83800
C45         C  0.97330024  0.19373210  0.19639009     0.84100
O46         O  0.97723897  0.18717115  0.22173848    -0.80800
O47         O  0.75054035  0.30163168  0.45522249    -0.78300
C48         C  0.80653867  0.29891920  0.52369560     0.82700
O49         O  0.78872806  0.20727668  0.45771120    -0.79400
O50         O  0.76994979  0.22316738  0.55930861    -0.80900
O51         O  0.69044734  0.27311127  0.52620499    -0.80700
O52         O  0.70638530  0.28814647  0.45944172    -0.79300
Zn53       Zn  0.77322823  0.27418858  0.47634300     1.55700
O54         O  0.72363052  0.27444650  0.55846956    -0.80700
Cd55       Cd  0.71061413  0.25872657  0.49091394     1.59700
Cd56       Cd  0.75997850  0.21083960  0.49050728     1.59600
O57         O  0.69075032  0.22252481  0.47933481    -0.80700
O58         O  0.75072687  0.25071735  0.49915638    -1.91200
Cd59       Cd  0.75902973  0.25945908  0.53887519     1.59900
O60         O  0.72384512  0.19005814  0.47903718    -0.80700
O61         O  0.79139603  0.28825782  0.54264469    -0.79300
C62         C  0.79805157  0.22686195  0.44247541     0.83200
C63         C  0.72496496  0.30381154  0.44889463     0.82900
O64         O  0.80209963  0.29433447  0.49815095    -0.78300
C65         C  0.69837349  0.27790171  0.55098718     0.83700
O66         O  0.79274916  0.25209346  0.44785511    -0.78400
C67         C  0.69849369  0.19743324  0.47599339     0.83800
C68         C  0.77487200  0.19827289  0.55173109     0.84100
O69         O  0.77363874  0.19093877  0.52631343    -0.80800
O70         O  0.79865513  0.99484812  0.79157356    -0.78300
C71         C  0.72030925  0.94902017  0.80494764     0.82700
O72         O  0.78986324  0.96113867  0.70666072    -0.79400
O73         O  0.68986824  0.97334361  0.71908893    -0.80900
O74         O  0.71979914  0.05552755  0.77256380    -0.80700
O75         O  0.78867254  0.03973299  0.78751915    -0.79300
Zn76       Zn  0.76924204  0.97312350  0.77233586     1.55700
O77         O  0.68639350  0.02389249  0.76625731    -0.80700
Cd78       Cd  0.75594872  0.03663437  0.75873210     1.59700
Cd79       Cd  0.75815468  0.99015530  0.70979170     1.59600
O80         O  0.76687421  0.05862077  0.72301453    -0.80700
O81         O  0.74751268  0.99694525  0.74932997    -1.91200
Cd82       Cd  0.70733114  0.98749997  0.75590871     1.59900
O83         O  0.76961032  0.02642939  0.69009771    -0.80700
O84         O  0.70188276  0.95848039  0.78834392    -0.79300
C85         C  0.79748969  0.94349574  0.72478713     0.83200
C86         C  0.80396565  0.02014199  0.79682185     0.82900
O87         O  0.74606662  0.95415716  0.80136070    -0.78300
C88         C  0.69415373  0.04848396  0.77243053     0.83700
O89         O  0.78902465  0.94451915  0.74976466    -0.78400
C90         C  0.77110014  0.05164093  0.69783477     0.83800
C91         C  0.69882495  0.97098142  0.69424437     0.84100
O92         O  0.72409698  0.97600110  0.68788544    -0.80800
O93         O  0.29791216  0.94984278  0.25326563    -0.78300
C94         C  0.29924705  0.02435006  0.30439140     0.82700
O95         O  0.20492490  0.95965293  0.28694799    -0.79400
O96         O  0.22415108  0.05901947  0.26658579    -0.80900
O97         O  0.27563546  0.02325932  0.18879523    -0.80700
O98         O  0.29138042  0.95671772  0.20803719    -0.79300
Zn99       Zn  0.27287330  0.97529466  0.27407344     1.55700
O100        O  0.27530513  0.05722364  0.22012040    -0.80700
Cd101      Cd  0.26140551  0.98829651  0.20959163     1.59700
Cd102      Cd  0.21128020  0.98994944  0.25630912     1.59600
O103        O  0.22569041  0.97638805  0.18804696    -0.80700
O104        O  0.25165862  0.99790568  0.24902473    -1.91200
Cd105      Cd  0.26054033  0.03818240  0.25604233     1.59900
O106        O  0.19198947  0.97812130  0.21981169    -0.80700
O107        O  0.28908242  0.04294301  0.28850367    -0.79300
C108        C  0.22322933  0.94621031  0.30058890     0.83200
C109        C  0.30295997  0.94385179  0.22809653     0.82900
O110        O  0.29436796  0.99868458  0.30064976    -0.78300
C111        C  0.27920716  0.04864433  0.19538526     0.83700
O112        O  0.24906911  0.95043233  0.29711990    -0.78400
C113        C  0.20007897  0.97428257  0.19490751     0.83800
C114        C  0.19897124  0.05135281  0.27028235     0.84100
O115        O  0.19158245  0.02605718  0.26802742    -0.80800
O116        O  0.04599411  0.54891907  0.50139392    -0.78300
C117        C  0.97863652  0.54516748  0.55467689     0.82700
O118        O  0.04717014  0.45272876  0.53577405    -0.79400
O119        O  0.94455952  0.46851723  0.51921065    -0.80900
O120        O  0.97889273  0.51882071  0.43860800    -0.80700
O121        O  0.04429161  0.53800254  0.45672046    -0.79300
Zn122      Zn  0.02657665  0.51957576  0.52257738     1.55700
O123        O  0.94513109  0.51829188  0.47042652    -0.80700
Cd124      Cd  0.01439865  0.50627459  0.45957702     1.59700
Cd125      Cd  0.01435652  0.45702660  0.50707120     1.59600
O126        O  0.02674445  0.47069512  0.43898617    -0.80700
O127        O  0.00461390  0.49691301  0.49902126    -1.91200
Cd128      Cd  0.96429382  0.50536852  0.50711305     1.59900
O129        O  0.02548166  0.43689118  0.47061519    -0.80700
O130        O  0.95972679  0.53577950  0.53856698    -0.79300
C131        C  0.06178512  0.47234130  0.54594070     0.83200
C132        C  0.05266149  0.55362331  0.47635838     0.82900
O133        O  0.00407960  0.53882464  0.55120061    -0.78300
C134        C  0.95342433  0.52192516  0.44547532     0.83700
O135        O  0.05571429  0.49759724  0.54146643    -0.78400
C136        C  0.02883661  0.44516422  0.44571195     0.83800
C137        C  0.95310530  0.44362294  0.52278875     0.84100
O138        O  0.97869532  0.43691369  0.52014768    -0.80800
O139        O  0.45575027  0.30535353  0.74630639    -0.78300
C140        C  0.44787701  0.23241856  0.79776481     0.82700
O141        O  0.54646821  0.29394512  0.78863675    -0.79400
O142        O  0.52846510  0.19528957  0.76951879    -0.80900
O143        O  0.48342702  0.22723102  0.68779662    -0.80700
O144        O  0.46185865  0.29295032  0.70242183    -0.79300
Zn145      Zn  0.47887057  0.28003978  0.76966728     1.55700
O146        O  0.48134083  0.19538059  0.72122239    -0.80700
Cd147      Cd  0.49364919  0.26368002  0.70816140     1.59700
Cd148      Cd  0.54250559  0.26333942  0.75771604     1.59600
O149        O  0.52929360  0.27851459  0.68947734    -0.80700
O150        O  0.50219738  0.25599868  0.74820024    -1.91200
Cd151      Cd  0.49329898  0.21629027  0.75681435     1.59900
O152        O  0.56223236  0.27782231  0.72215188    -0.80700
O153        O  0.46221080  0.21312664  0.78669029    -0.79300
C154        C  0.52722593  0.30895733  0.79909067     0.83200
C155        C  0.45031457  0.30814309  0.72071380     0.82900
O156        O  0.45246373  0.25793026  0.79274774    -0.78300
C157        C  0.47960064  0.20226886  0.69575031     0.83700
O158        O  0.50171266  0.30495104  0.79330700    -0.78400
C159        C  0.55439012  0.28233222  0.69724418     0.83800
C160        C  0.55410401  0.20151481  0.77224726     0.84100
O161        O  0.56277524  0.22640807  0.76909043    -0.80800
O162        O  0.79469097  0.75765509  0.95412475    -0.78300
C163        C  0.71828022  0.80788753  0.95334052     0.82700
O164        O  0.78633044  0.79546418  0.04695572    -0.79400
O165        O  0.68805677  0.77402950  0.03391655    -0.80900
O166        O  0.72075599  0.69484858  0.98205447    -0.80700
O167        O  0.78657728  0.71297043  0.96268492    -0.79300
Zn168      Zn  0.76885275  0.77903125  0.97945101     1.55700
O169        O  0.68669153  0.72615947  0.98477587    -0.80700
Cd170      Cd  0.75641934  0.71593490  0.99369395     1.59700
Cd171      Cd  0.75774205  0.76267299  0.04333163     1.59600
O172        O  0.77034715  0.69529230  0.02849249    -0.80700
O173        O  0.74738228  0.75531009  0.00327975    -1.91200
Cd174      Cd  0.70655707  0.76269056  0.99654381     1.59900
O175        O  0.77323377  0.72681985  0.06212084    -0.80700
O176        O  0.69991517  0.79385843  0.96641946    -0.79300
C177        C  0.79638497  0.81033033  0.02746618     0.83200
C178        C  0.79940483  0.73206205  0.94957901     0.82900
O179        O  0.74416148  0.80334279  0.95662677    -0.78300
C180        C  0.69506064  0.70137676  0.98050546     0.83700
O181        O  0.79103895  0.80530982  0.00215681    -0.78400
C182        C  0.77556934  0.70187690  0.05353676     0.83800
C183        C  0.69642606  0.77614986  0.05897141     0.84100
O184        O  0.72196633  0.77275878  0.06552479    -0.80800
O185        O  0.29487112  0.25019809  0.94498742    -0.78300
C186        C  0.22799126  0.30396247  0.94944497     0.82700
O187        O  0.29551545  0.28277329  0.04158845    -0.79400
O188        O  0.19473070  0.26864212  0.02582879    -0.80900
O189        O  0.22511118  0.18816605  0.97477626    -0.80700
O190        O  0.29124608  0.20532582  0.95534889    -0.79300
Zn191      Zn  0.27565533  0.27140828  0.97453925     1.55700
O192        O  0.19319524  0.22172828  0.97684011    -0.80700
Cd193      Cd  0.26172131  0.20772164  0.98726021     1.59700
Cd194      Cd  0.26278575  0.25449981  0.03720866     1.59600
O195        O  0.27515816  0.18599289  0.02214335    -0.80700
O196        O  0.25359880  0.24748390  0.99715030    -1.91200
Cd197      Cd  0.21390989  0.25687619  0.98929512     1.59900
O198        O  0.27470368  0.21759388  0.05586545    -0.80700
O199        O  0.20929224  0.28786538  0.95912404    -0.79300
C200        C  0.31052480  0.29321860  0.02242110     0.83200
C201        C  0.30063309  0.22493964  0.94020651     0.82900
O202        O  0.25353940  0.30085843  0.95550948    -0.78300
C203        C  0.19996228  0.19652549  0.97260652     0.83700
O204        O  0.30494295  0.28949876  0.99695480    -0.78400
C205        C  0.27830735  0.19273250  0.04754772     0.83800
C206        C  0.20231060  0.27117016  0.05105414     0.84100
O207        O  0.22755540  0.26758837  0.05852646    -0.80800
O208        O  0.70165500  0.54521808  0.25128136    -0.78300
C209        C  0.77424204  0.55379135  0.19627910     0.82700
O210        O  0.71490972  0.45513923  0.21107497    -0.79400
O211        O  0.81380706  0.47440141  0.22505470    -0.80900
O212        O  0.78298581  0.52251369  0.30699986    -0.80700
O213        O  0.71443169  0.53773917  0.29499920    -0.79300
Zn214      Zn  0.72755507  0.52308684  0.22699118     1.55700
O215        O  0.81476825  0.52270080  0.27330940    -0.80700
Cd216      Cd  0.74642743  0.50883376  0.28885929     1.59700
Cd217      Cd  0.74582666  0.46046580  0.24086325     1.59600
O218        O  0.73597822  0.47253527  0.30950628    -0.80700
O219        O  0.75302281  0.50077495  0.24861341    -1.91200
Cd220      Cd  0.79275401  0.50983228  0.23857348     1.59900
O221        O  0.73436893  0.43992390  0.27685974    -0.80700
O222        O  0.79401985  0.54103940  0.20853291    -0.79300
C223        C  0.69986341  0.47336056  0.19915651     0.83200
C224        C  0.69858871  0.54925187  0.27716156     0.82900
O225        O  0.74871358  0.54880934  0.20153850    -0.78300
C226        C  0.80796972  0.52603398  0.29864905     0.83700
O227        O  0.70286938  0.49915654  0.20368807    -0.78400
C228        C  0.73223463  0.44740610  0.30211720     0.83800
C229        C  0.80674088  0.44893805  0.22307137     0.84100
O230        O  0.78186772  0.44101018  0.22783977    -0.80800
O231        O  0.45080996  0.95462129  0.50044143    -0.78300
C232        C  0.44305403  0.02759626  0.44985396     0.82700
O233        O  0.53978579  0.96128574  0.45585199    -0.79400
O234        O  0.52651315  0.06055598  0.47545755    -0.80900
O235        O  0.48186335  0.02917459  0.55875056    -0.80700
O236        O  0.46275792  0.96283092  0.54424433    -0.79300
Zn237      Zn  0.47387923  0.97899653  0.47637147     1.55700
O238        O  0.47998494  0.06157288  0.52576703    -0.80700
Cd239      Cd  0.49312718  0.99318235  0.53795388     1.59700
Cd240      Cd  0.53850026  0.99162564  0.48692399     1.59600
O241        O  0.53005481  0.98024980  0.55572289    -0.80700
O242        O  0.49905235  0.00123426  0.49756521    -1.91200
Cd243      Cd  0.49067414  0.04128045  0.48927337     1.59900
O244        O  0.56107043  0.97857209  0.52137130    -0.80700
O245        O  0.45867380  0.04640851  0.45999661    -0.79300
C246        C  0.51946001  0.95025367  0.44288245     0.83200
C247        C  0.44799731  0.95028785  0.52625259     0.82900
O248        O  0.44699459  0.00210778  0.45525086    -0.78300
C249        C  0.47812492  0.05427197  0.55115761     0.83700
O250        O  0.49430481  0.95577878  0.44903324    -0.78400
C251        C  0.55473484  0.97593533  0.54693084     0.83800
C252        C  0.55143346  0.05256736  0.47091222     0.84100
O253        O  0.55869243  0.02721244  0.47340899    -0.80800
O254        O  0.99858662  0.69839822  0.70425171    -0.78300
C255        C  0.04380039  0.77579160  0.69333215     0.82700
O256        O  0.03463539  0.70810675  0.79132016    -0.79400
O257        O  0.01807861  0.80812830  0.77671988    -0.80900
O258        O  0.93704630  0.77408760  0.72487376    -0.80700
O259        O  0.95338214  0.70684654  0.70899404    -0.79300
Zn260      Zn  0.01975163  0.72686771  0.72515171     1.55700
O261        O  0.96800456  0.80859163  0.72793303    -0.80700
Cd262      Cd  0.95640956  0.73864868  0.73901983     1.59700
Cd263      Cd  0.00421114  0.73916594  0.78795501     1.59600
O264        O  0.93500289  0.72764083  0.77528360    -0.80700
O265        O  0.99601918  0.74849692  0.74824433    -1.91200
Cd266      Cd  0.00424822  0.78885728  0.74073261     1.59900
O267        O  0.96779479  0.72753374  0.80801060    -0.80700
O268        O  0.03369655  0.79425876  0.70930497    -0.79300
C269        C  0.05116893  0.69957173  0.77244322     0.83200
C270        C  0.97337753  0.69278267  0.69861830     0.82900
O271        O  0.03906896  0.75014772  0.69717062    -0.78300
C272        C  0.94353981  0.79967338  0.72273656     0.83700
O273        O  0.04827385  0.70682171  0.74726500    -0.78400
C274        C  0.94243718  0.72474334  0.80057794     0.83800
C275        C  0.02216351  0.79973935  0.80150776     0.84100
O276        O  0.01829536  0.77445845  0.80848663    -0.80800
O277        O  0.44496364  0.78550231  0.25761704    -0.78300
C278        C  0.44833839  0.71987395  0.31306702     0.82700
O279        O  0.54098016  0.78417096  0.29519091    -0.79400
O280        O  0.52322145  0.68269247  0.27801638    -0.80900
O281        O  0.47677493  0.71742330  0.19691918    -0.80700
O282        O  0.45911879  0.78385452  0.21380198    -0.79300
Zn283      Zn  0.47403922  0.76611223  0.27960184     1.55700
O284        O  0.47427733  0.68478216  0.22971329    -0.80700
Cd285      Cd  0.48963810  0.75296247  0.21770904     1.59700
Cd286      Cd  0.53740841  0.75112183  0.26705917     1.59600
O287        O  0.52610036  0.76594812  0.19871410    -0.80700
O288        O  0.49736674  0.74334179  0.25741020    -1.91200
Cd289      Cd  0.48750235  0.70387236  0.26577769     1.59900
O290        O  0.55879563  0.76279551  0.23138651    -0.80700
O291        O  0.45716414  0.70070944  0.29707460    -0.79300
C292        C  0.52145361  0.80031131  0.30307966     0.83200
C293        C  0.44244416  0.79267033  0.23240413     0.82900
O294        O  0.45493546  0.74509388  0.30936220    -0.78300
C295        C  0.47215517  0.69242665  0.20445452     0.83700
O296        O  0.49616183  0.79536709  0.29731683    -0.78400
C297        C  0.55143888  0.76789925  0.20647163     0.83800
C298        C  0.54834976  0.68971907  0.28313310     0.84100
O299        O  0.55642376  0.71493906  0.28140557    -0.80800
O300        O  0.19553696  0.75705403  0.54842438    -0.78300
C301        C  0.19549609  0.70196602  0.48201288     0.82700
O302        O  0.29001235  0.71838340  0.54890546    -0.79400
O303        O  0.27693281  0.73086686  0.44855188    -0.80900
O304        O  0.22732884  0.81424634  0.47538958    -0.80700
O305        O  0.20488324  0.80147051  0.54034105    -0.79300
Zn306      Zn  0.22325641  0.73342664  0.52939368     1.55700
O307        O  0.22867754  0.77985216  0.44449533    -0.80700
Cd308      Cd  0.23801775  0.79576609  0.51267310     1.59700
Cd309      Cd  0.28656940  0.74766878  0.51697172     1.59600
O310        O  0.27324562  0.81669750  0.52599622    -0.80700
O311        O  0.24690339  0.75535188  0.50634582    -1.91200
Cd312      Cd  0.24010524  0.74455671  0.46659476     1.59900
O313        O  0.30612107  0.78412694  0.52876760    -0.80700
O314        O  0.20915625  0.71389011  0.46267519    -0.79300
C315        C  0.27049962  0.70749375  0.56318777     0.83200
C316        C  0.18995275  0.78261715  0.55141522     0.82900
O317        O  0.20006374  0.70736547  0.50737661    -0.78300
C318        C  0.22510588  0.80540001  0.45058514     0.83700
O319        O  0.24498811  0.71229439  0.55779930    -0.78400
C320        C  0.29838026  0.80938020  0.53053322     0.83800
C321        C  0.30191209  0.72917779  0.45742079     0.84100
O322        O  0.30824863  0.73439180  0.48254209    -0.80800
O323        O  0.20765614  0.50518652  0.70109599    -0.78300
C324        C  0.19733624  0.55465392  0.77624035     0.82700
O325        O  0.29704774  0.54625139  0.71797998    -0.79400
O326        O  0.27518554  0.52236997  0.81466010    -0.80900
O327        O  0.22982091  0.44141273  0.77793391    -0.80700
O328        O  0.21266989  0.46032008  0.71039731    -0.79300
Zn329      Zn  0.22892428  0.52654852  0.72920332     1.55700
O330        O  0.22842644  0.47436220  0.81040235    -0.80700
Cd331      Cd  0.24239557  0.46336747  0.74251370     1.59700
Cd332      Cd  0.29140645  0.51304795  0.74626881     1.59600
O333        O  0.27917853  0.44456729  0.72920457    -0.80700
O334        O  0.25090825  0.50329525  0.75243470    -1.91200
Cd335      Cd  0.24031337  0.51090652  0.79197077     1.59900
O336        O  0.31151150  0.47780785  0.73200096    -0.80700
O337        O  0.20893690  0.54109152  0.79580323    -0.79300
C338        C  0.27771705  0.55991917  0.70598461     0.83200
C339        C  0.20244735  0.47990801  0.69571502     0.82900
O340        O  0.20311789  0.55002473  0.75098310    -0.78300
C341        C  0.22635755  0.44905842  0.80306583     0.83700
O342        O  0.25232222  0.55340657  0.70912719    -0.78400
C343        C  0.30437126  0.45280658  0.72684997     0.83800
C344        C  0.30096288  0.52533761  0.80893506     0.84100
O345        O  0.31011195  0.52304017  0.78415220    -0.80800
O346        O  0.50005289  0.45736512  0.94994351    -0.78300
C347        C  0.45426016  0.43877585  0.02625009     0.82700
O348        O  0.46101657  0.54166450  0.96670522    -0.79400
O349        O  0.47752674  0.52184562  0.06465326    -0.80900
O350        O  0.56055186  0.47246158  0.03106462    -0.80700
O351        O  0.54460222  0.46011793  0.96229211    -0.79300
Zn352      Zn  0.47760925  0.47502987  0.97999694     1.55700
O353        O  0.52757121  0.47497124  0.06355877    -0.80700
Cd354      Cd  0.54087397  0.48786388  0.99570832     1.59700
Cd355      Cd  0.49217283  0.53647199  0.99664503     1.59600
O356        O  0.56160320  0.52461832  0.98582384    -0.80700
O357        O  0.50066148  0.49651981  0.00400300    -1.91200
Cd358      Cd  0.49144616  0.48690701  0.04347879     1.59900
O359        O  0.52814290  0.55673109  0.98485857    -0.80700
O360        O  0.46318768  0.45384729  0.04607124    -0.79300
C361        C  0.44469435  0.52339524  0.95665025     0.83200
C362        C  0.52560145  0.45172184  0.94579503     0.82900
O363        O  0.45936742  0.44470252  0.00106997    -0.78300
C364        C  0.55264508  0.47013414  0.05625466     0.83700
O365        O  0.44783230  0.49771405  0.96177316    -0.78400
C366        C  0.55365773  0.54971303  0.98256451     0.83800
C367        C  0.47528077  0.54735459  0.05780934     0.84100
O368        O  0.47973566  0.55558241  0.03305610    -0.80800
C369        C  0.41444899  0.55341146  0.86411348    -0.17600
C370        C  0.39454449  0.55254532  0.84293269    -0.19800
C371        C  0.36755617  0.54265419  0.84819153     0.20800
C372        C  0.36037571  0.53414149  0.87527083    -0.02700
C373        C  0.38057739  0.53465616  0.89658035    -0.05800
C374        C  0.40782095  0.54414053  0.89090388     0.21100
C375        C  0.37382338  0.52460564  0.92324360     0.19300
C376        C  0.34667283  0.51533697  0.92870412    -0.17300
C377        C  0.32654549  0.51528138  0.90774165    -0.19500
C378        C  0.33330200  0.52424058  0.88085862     0.20800
C379        C  0.31370205  0.52266909  0.85931391    -0.32500
C380        C  0.32093753  0.53020044  0.83199866     0.01500
C381        C  0.34788407  0.54043810  0.82671881    -0.23800
C382        C  0.42828039  0.54286793  0.91170863    -0.28400
C383        C  0.42200865  0.53132566  0.93770503     0.07100
C384        C  0.39467166  0.52276093  0.94353598    -0.27100
H385        H  0.43523405  0.56070435  0.85936513     0.11900
H386        H  0.40040304  0.55926076  0.82229127     0.13000
H387        H  0.34111499  0.50765092  0.94910277     0.12100
H388        H  0.30587411  0.50764271  0.91239619     0.11300
H389        H  0.29314535  0.51448940  0.86362595     0.16700
H390        H  0.35367906  0.54632986  0.80580456     0.12600
H391        H  0.44950387  0.54896295  0.90708596     0.15500
H392        H  0.38996264  0.51361174  0.96355314     0.15200
C393        C  0.32442071  0.60923034  0.62766716    -0.17600
C394        C  0.32316996  0.63013145  0.60736211    -0.19800
C395        C  0.30196532  0.65024856  0.60796249     0.20800
C396        C  0.28240284  0.64972265  0.62981794    -0.02700
C397        C  0.28380318  0.62884998  0.65036100    -0.05800
C398        C  0.30459154  0.60810500  0.64909620     0.21100
C399        C  0.26365451  0.62818752  0.67159375     0.19300
C400        C  0.24282178  0.64851698  0.67270750    -0.17300
C401        C  0.24133849  0.66898029  0.65235685    -0.19500
C402        C  0.26073553  0.66948396  0.63066751     0.20800
C403        C  0.25809943  0.68884850  0.60931505    -0.32500
C404        C  0.27672652  0.68901038  0.58690016     0.01500
C405        C  0.29922655  0.67021905  0.58668233    -0.23800
C406        C  0.30427746  0.58609111  0.66854432    -0.28400
C407        C  0.28320099  0.58482350  0.68884145     0.07100
C408        C  0.26375451  0.60651182  0.69070879    -0.27100
H409        H  0.34059756  0.59362855  0.62629442     0.11900
H410        H  0.33843586  0.63017929  0.59082501     0.13000
H411        H  0.22723224  0.64817934  0.68895294     0.12100
H412        H  0.22465411  0.68409009  0.65327205     0.11300
H413        H  0.24095954  0.70350299  0.60977784     0.16700
H414        H  0.31363270  0.67023795  0.56938791     0.12600
H415        H  0.31923549  0.56934206  0.66691070     0.15500
H416        H  0.24764816  0.60578861  0.70647925     0.15200
C417        C  0.46773671  0.57368041  0.15653449    -0.17600
C418        C  0.46697127  0.59408097  0.17709458    -0.19800
C419        C  0.46518282  0.62223399  0.16989689     0.20800
C420        C  0.46353278  0.62990428  0.14173389    -0.02700
C421        C  0.46424533  0.60928726  0.12096406    -0.05800
C422        C  0.46665542  0.58107062  0.12841958     0.21100
C423        C  0.46340377  0.61697373  0.09276666     0.19300
C424        C  0.46120754  0.64512214  0.08559584    -0.17300
C425        C  0.46055887  0.66554886  0.10617229    -0.19500
C426        C  0.46208212  0.65819002  0.13428358     0.20800
C427        C  0.46326528  0.67861703  0.15498849    -0.32500
C428        C  0.46604952  0.67114239  0.18308176     0.01500
C429        C  0.46612821  0.64283863  0.19034304    -0.23800
C430        C  0.46882556  0.56080702  0.10766711    -0.28400
C431        C  0.46894047  0.56833594  0.07946291     0.07100
C432        C  0.46565337  0.59648439  0.07223798    -0.27100
H433        H  0.46961473  0.55212280  0.16262699     0.11900
H434        H  0.46829938  0.58785659  0.19863275     0.13000
H435        H  0.46048904  0.65138258  0.06404025     0.12100
H436        H  0.45937989  0.68715341  0.10006682     0.11300
H437        H  0.46310368  0.70032314  0.14910778     0.16700
H438        H  0.46828962  0.63674579  0.21186056     0.12600
H439        H  0.47148422  0.53926496  0.11355425     0.15500
H440        H  0.46571771  0.60260639  0.05062065     0.15200
C441        C  0.39970385  0.73977400  0.42909267    -0.17600
C442        C  0.42047069  0.73823949  0.40886838    -0.19800
C443        C  0.41500145  0.72570274  0.38322446     0.20800
C444        C  0.38851772  0.71417802  0.37801330    -0.02700
C445        C  0.36738798  0.71617795  0.39827271    -0.05800
C446        C  0.37306033  0.72908606  0.42388076     0.21100
C447        C  0.34041879  0.70604458  0.39259151     0.19300
C448        C  0.33509275  0.69323152  0.36702279    -0.17300
C449        C  0.35615712  0.69091361  0.34706162    -0.19500
C450        C  0.38285067  0.70158384  0.35219965     0.20800
C451        C  0.40358350  0.70107783  0.33159015    -0.32500
C452        C  0.42944489  0.71380483  0.33630584     0.01500
C453        C  0.43517827  0.72559421  0.36227855    -0.23800
C454        C  0.35179419  0.73186384  0.44352854    -0.28400
C455        C  0.32462189  0.72268643  0.43772676     0.07100
C456        C  0.31911620  0.70956702  0.41227404    -0.27100
H457        H  0.40433667  0.74983196  0.44864241     0.11900
H458        H  0.44068666  0.74718630  0.41313607     0.13000
H459        H  0.31455213  0.68530138  0.36233003     0.12100
H460        H  0.35138786  0.68127434  0.32734391     0.11300
H461        H  0.39897423  0.69257738  0.31131061     0.16700
H462        H  0.45503216  0.73570049  0.36572809     0.12600
H463        H  0.35616470  0.74234212  0.46292563     0.15500
H464        H  0.29823478  0.70247902  0.40765288     0.15200
C465        C  0.14428541  0.82745434  0.63156912    -0.17600
C466        C  0.12355013  0.82620193  0.65201279    -0.19800
C467        C  0.10146217  0.80725169  0.64973076     0.20800
C468        C  0.09965515  0.79023942  0.62597988    -0.02700
C469        C  0.12044525  0.79158482  0.60535786    -0.05800
C470        C  0.14327602  0.80981618  0.60844904     0.21100
C471        C  0.11914628  0.77354122  0.58240745     0.19300
C472        C  0.09659933  0.75532828  0.57947805    -0.17300
C473        C  0.07609629  0.75394136  0.59990008    -0.19500
C474        C  0.07783894  0.77081612  0.62346804     0.20800
C475        C  0.05888191  0.76757499  0.64515254    -0.32500
C476        C  0.06126650  0.78341536  0.66941278     0.01500
C477        C  0.08193242  0.80397746  0.67128007    -0.23800
C478        C  0.16538699  0.80881410  0.58926128    -0.28400
C479        C  0.16488850  0.78937377  0.56760168     0.07100
C480        C  0.14124899  0.77273547  0.56366746    -0.27100
H481        H  0.16154523  0.84164963  0.63426087     0.11900
H482        H  0.12524152  0.83949445  0.67001571     0.13000
H483        H  0.09532791  0.74146010  0.56184988     0.12100
H484        H  0.05934245  0.73907952  0.59767124     0.11300
H485        H  0.04274754  0.75192156  0.64360172     0.16700
H486        H  0.08381837  0.81613293  0.69006220     0.12600
H487        H  0.18370174  0.82156797  0.59231366     0.15500
H488        H  0.14081910  0.75791392  0.54675249     0.15200
C489        C  0.08905489  0.61371515  0.81492947    -0.17600
C490        C  0.10971359  0.59311581  0.81550963    -0.19800
C491        C  0.13420818  0.59606652  0.79983522     0.20800
C492        C  0.13804308  0.62035352  0.78382857    -0.02700
C493        C  0.11725201  0.64106246  0.78322914    -0.05800
C494        C  0.09247612  0.63767081  0.79865887     0.21100
C495        C  0.12091769  0.66475080  0.76641156     0.19300
C496        C  0.14545528  0.66801514  0.75101602    -0.17300
C497        C  0.16599700  0.64758696  0.75162077    -0.19500
C498        C  0.16227663  0.62358824  0.76762641     0.20800
C499        C  0.18197381  0.60234095  0.76680744    -0.32500
C500        C  0.17800443  0.57772462  0.78184623     0.01500
C501        C  0.15447375  0.57485887  0.79898303    -0.23800
C502        C  0.07126411  0.65781012  0.79667162    -0.28400
C503        C  0.07452180  0.68078722  0.77895041     0.07100
C504        C  0.09958937  0.68432725  0.76441478    -0.27100
H505        H  0.07018328  0.61068430  0.82686205     0.11900
H506        H  0.10631771  0.57465627  0.82787362     0.13000
H507        H  0.14853282  0.68615217  0.73805992     0.12100
H508        H  0.18454903  0.65029608  0.73913365     0.11300
H509        H  0.20017651  0.60455659  0.75366721     0.16700
H510        H  0.15128455  0.55573853  0.81037365     0.12600
H511        H  0.05178735  0.65488974  0.80765066     0.15500
H512        H  0.10214791  0.70208268  0.75079269     0.15200
C513        C  0.48719156  0.91086963  0.35517830    -0.17600
C514        C  0.48804092  0.89022693  0.33499996    -0.19800
C515        C  0.50847527  0.86949065  0.33608991     0.20800
C516        C  0.52890141  0.86998647  0.35704558    -0.02700
C517        C  0.52817686  0.89101505  0.37734136    -0.05800
C518        C  0.50688477  0.91116545  0.37659888     0.21100
C519        C  0.54810526  0.89134227  0.39885312     0.19300
C520        C  0.56889978  0.87084127  0.39943369    -0.17300
C521        C  0.56946450  0.84978746  0.37939626    -0.19500
C522        C  0.54933186  0.84891577  0.35832038     0.20800
C523        C  0.54837742  0.82675899  0.33930812    -0.32500
C524        C  0.52699331  0.82552721  0.31946465     0.01500
C525        C  0.50791891  0.84754289  0.31733932    -0.23800
C526        C  0.50506374  0.93080898  0.39773356    -0.28400
C527        C  0.52428379  0.93093385  0.41965065     0.07100
C528        C  0.54625772  0.91161899  0.41979723    -0.27100
H529        H  0.47081218  0.92631086  0.35432685     0.11900
H530        H  0.47226293  0.89005813  0.31895450     0.13000
H531        H  0.58439238  0.87074601  0.41573415     0.12100
H532        H  0.58533810  0.83387268  0.38071283     0.11300
H533        H  0.56310463  0.80980853  0.34100365     0.16700
H534        H  0.49163783  0.84690784  0.30177453     0.12600
H535        H  0.48826718  0.94585603  0.39739419     0.15500
H536        H  0.56103617  0.91160027  0.43675739     0.15200
C537        C  0.39556723  0.83633725  0.55148647    -0.17600
C538        C  0.41673494  0.85630835  0.55143829    -0.19800
C539        C  0.41073977  0.88405526  0.54492329     0.20800
C540        C  0.38297836  0.89183690  0.53905711    -0.02700
C541        C  0.36162869  0.87171668  0.53924351    -0.05800
C542        C  0.36802819  0.84376394  0.54511236     0.21100
C543        C  0.33406905  0.87943095  0.53262118     0.19300
C544        C  0.32799044  0.90718948  0.52628503    -0.17300
C545        C  0.34915333  0.92705920  0.52586360    -0.19500
C546        C  0.37669007  0.91952903  0.53191894     0.20800
C547        C  0.39821645  0.93894658  0.52976001    -0.32500
C548        C  0.42588385  0.93115552  0.53474835     0.01500
C549        C  0.43210243  0.90391186  0.54293334    -0.23800
C550        C  0.34697464  0.82361503  0.54356926    -0.28400
C551        C  0.31957256  0.83103053  0.53622137     0.07100
C552        C  0.31321987  0.85913272  0.53144457    -0.27100
H553        H  0.40083810  0.81495032  0.55606490     0.11900
H554        H  0.43787073  0.84994954  0.55594398     0.13000
H555        H  0.30697195  0.91342301  0.52110939     0.12100
H556        H  0.34404695  0.94826048  0.52032404     0.11300
H557        H  0.39365879  0.95993224  0.52298856     0.16700
H558        H  0.45359327  0.89788147  0.54614923     0.12600
H559        H  0.35213871  0.80203352  0.54727378     0.15500
H560        H  0.29229914  0.86510857  0.52555902     0.15200
C561        C  0.60089449  0.47158533  0.17484789    -0.17600
C562        C  0.58006479  0.47092388  0.15464347    -0.19800
C563        C  0.58677823  0.46533966  0.12688826     0.20800
C564        C  0.61455991  0.45927782  0.11957531    -0.02700
C565        C  0.63555897  0.45960733  0.14004867    -0.05800
C566        C  0.62872144  0.46643844  0.16767569     0.21100
C567        C  0.66353749  0.45437656  0.13264645     0.19300
C568        C  0.67009183  0.44811226  0.10500205    -0.17300
C569        C  0.64929669  0.44803158  0.08467242    -0.19500
C570        C  0.62156095  0.45406889  0.09164608     0.20800
C571        C  0.60095299  0.45616821  0.07106900    -0.32500
C572        C  0.57340948  0.46338227  0.07807158     0.01500
C573        C  0.56638126  0.46698273  0.10619238    -0.23800
C574        C  0.64997873  0.46925290  0.18733772    -0.28400
C575        C  0.67786500  0.46497844  0.17984320     0.07100
C576        C  0.68455984  0.45680867  0.15274782    -0.27100
H577        H  0.59530815  0.47672832  0.19600663     0.11900
H578        H  0.55883097  0.47554726  0.16058737     0.13000
H579        H  0.69141446  0.44399639  0.09896704     0.12100
H580        H  0.65502960  0.44384716  0.06335542     0.11300
H581        H  0.60660125  0.45319007  0.04952267     0.16700
H582        H  0.54530043  0.47254010  0.11192447     0.12600
H583        H  0.64500436  0.47583514  0.20826336     0.15500
H584        H  0.70619207  0.45397518  0.14699489     0.15200
C585        C  0.57739632  0.59138941  0.27947159    -0.17600
C586        C  0.59865275  0.57153668  0.27852473    -0.19800
C587        C  0.62627904  0.57897910  0.28439315     0.20800
C588        C  0.63239173  0.60647025  0.29237043    -0.02700
C589        C  0.61096286  0.62659698  0.29301444    -0.05800
C590        C  0.58343182  0.61909234  0.28611333     0.21100
C591        C  0.61733479  0.65444271  0.29936214     0.19300
C592        C  0.64480045  0.66165412  0.30620386    -0.17300
C593        C  0.66598148  0.64169179  0.30580977    -0.19500
C594        C  0.66011727  0.61416398  0.29840574     0.20800
C595        C  0.68164309  0.59456854  0.29557017    -0.32500
C596        C  0.67579714  0.56768687  0.28607871     0.01500
C597        C  0.64807497  0.55982650  0.28111394    -0.23800
C598        C  0.56267631  0.63959856  0.28472923    -0.28400
C599        C  0.56915167  0.66770935  0.28952458     0.07100
C600        C  0.59642684  0.67477856  0.29759196    -0.27100
H601        H  0.55637775  0.58524111  0.27423158     0.11900
H602        H  0.59356901  0.55046772  0.27254243     0.13000
H603        H  0.65004783  0.68292181  0.31125703     0.12100
H604        H  0.68708610  0.64795945  0.31054681     0.11300
H605        H  0.70306878  0.60067080  0.29903085     0.16700
H606        H  0.64365823  0.53908343  0.27362191     0.12600
H607        H  0.54182229  0.63381412  0.27847367     0.15500
H608        H  0.60168067  0.69628894  0.30150372     0.15200
C609        C  0.24085828  0.42060791  0.89966672    -0.17600
C610        C  0.24078147  0.40043834  0.92044815    -0.19800
C611        C  0.22984825  0.37399533  0.91525465     0.20800
C612        C  0.21852085  0.36786373  0.88896912    -0.02700
C613        C  0.21906301  0.38811749  0.86778865    -0.05800
C614        C  0.23026352  0.41456385  0.87327340     0.21100
C615        C  0.20908463  0.38170834  0.84100925     0.19300
C616        C  0.19792655  0.35526550  0.83597420    -0.17300
C617        C  0.19701286  0.33528202  0.85710596    -0.19500
C618        C  0.20750820  0.34125500  0.88360653     0.20800
C619        C  0.20833198  0.32082377  0.90448132    -0.32500
C620        C  0.22084292  0.32657514  0.93018029     0.01500
C621        C  0.23111071  0.35326226  0.93554753    -0.23800
C622        C  0.23130630  0.43439038  0.85214622    -0.28400
C623        C  0.22205403  0.42813785  0.82519923     0.07100
C624        C  0.21095066  0.40168522  0.81972097    -0.27100
H625        H  0.24963085  0.44082184  0.90411106     0.11900
H626        H  0.24956918  0.40542788  0.94050820     0.13000
H627        H  0.19010792  0.34994616  0.81560730     0.12100
H628        H  0.18857186  0.31495823  0.85256163     0.11300
H629        H  0.20097170  0.30002048  0.90015955     0.16700
H630        H  0.24103311  0.35753698  0.95527378     0.12600
H631        H  0.24039855  0.45450257  0.85650390     0.15500
H632        H  0.20392208  0.39665949  0.79898554     0.15200
C633        C  0.42139782  0.34884587  0.99328396    -0.17600
C634        C  0.40105324  0.32824389  0.99274937    -0.19800
C635        C  0.37953653  0.32823878  0.01237897     0.20800
C636        C  0.37905669  0.34840260  0.03352710    -0.02700
C637        C  0.39964460  0.36925519  0.03407170    -0.05800
C638        C  0.42047902  0.36971489  0.01346650     0.21100
C639        C  0.39863703  0.39032886  0.05436961     0.19300
C640        C  0.37757903  0.38960823  0.07458041    -0.17300
C641        C  0.35710106  0.36887857  0.07403328    -0.19500
C642        C  0.35731658  0.34848480  0.05327284     0.20800
C643        C  0.33555531  0.32903340  0.05099857    -0.32500
C644        C  0.33524699  0.31009734  0.02886384     0.01500
C645        C  0.35776631  0.30923472  0.01032152    -0.23800
C646        C  0.43924667  0.39176625  0.01247753    -0.28400
C647        C  0.43748332  0.41367337  0.03156326     0.07100
C648        C  0.41785398  0.41238710  0.05317956    -0.27100
H649        H  0.43737483  0.34892438  0.97743855     0.11900
H650        H  0.40169374  0.31276304  0.97647119     0.13000
H651        H  0.37650484  0.40551128  0.09038296     0.12100
H652        H  0.34067289  0.36923780  0.08942169     0.11300
H653        H  0.31815247  0.32973778  0.06529168     0.16700
H654        H  0.35773868  0.29437040  0.99343679     0.12600
H655        H  0.45462283  0.39248595  0.99602602     0.15500
H656        H  0.41644743  0.42926851  0.06791893     0.15200
C657        C  0.57741764  0.64899534  0.97401742    -0.17600
C658        C  0.59715494  0.67031100  0.97362080    -0.19800
C659        C  0.62570964  0.66411864  0.97338411     0.20800
C660        C  0.63443169  0.63616267  0.97297470    -0.02700
C661        C  0.61448416  0.61462855  0.97346600    -0.05800
C662        C  0.58586773  0.62113388  0.97423399     0.21100
C663        C  0.62318272  0.58666011  0.97391892     0.19300
C664        C  0.65174387  0.58047890  0.97322955    -0.17300
C665        C  0.67149956  0.60181574  0.97266665    -0.19500
C666        C  0.66307335  0.62970038  0.97284483     0.20800
C667        C  0.68276230  0.65119366  0.97380220    -0.32500
C668        C  0.67426894  0.67914655  0.97526905     0.01500
C669        C  0.64563488  0.68539415  0.97443922    -0.23800
C670        C  0.56620578  0.59972665  0.97597326    -0.28400
C671        C  0.57463594  0.57176526  0.97731499     0.07100
C672        C  0.60323151  0.56540814  0.97580109    -0.27100
H673        H  0.55547530  0.65433659  0.97458909     0.11900
H674        H  0.59009849  0.69161828  0.97391188     0.13000
H675        H  0.65880506  0.55917219  0.97351613     0.12100
H676        H  0.69344818  0.59647866  0.97254829     0.11300
H677        H  0.70473895  0.64602705  0.97447349     0.16700
H678        H  0.63878045  0.70675766  0.97555729     0.12600
H679        H  0.54427288  0.60499142  0.97715516     0.15500
H680        H  0.61002671  0.54402050  0.97684293     0.15200
C681        C  0.65043229  0.77875579  0.17928326    -0.17600
C682        C  0.67081374  0.77995650  0.15853093    -0.19800
C683        C  0.66319245  0.78160835  0.13048344     0.20800
C684        C  0.63473113  0.78303191  0.12337026    -0.02700
C685        C  0.61416129  0.78183153  0.14430253    -0.05800
C686        C  0.62203684  0.77917877  0.17234578     0.21100
C687        C  0.58571330  0.78228712  0.13703733     0.19300
C688        C  0.57807228  0.78483034  0.10910043    -0.17300
C689        C  0.59840738  0.78598244  0.08839159    -0.19500
C690        C  0.62676005  0.78464984  0.09528422     0.20800
C691        C  0.64715473  0.78387291  0.07447825    -0.32500
C692        C  0.67555142  0.78118987  0.08123682     0.01500
C693        C  0.68341379  0.78082374  0.10939648    -0.23800
C694        C  0.60143115  0.77595319  0.19281428    -0.28400
C695        C  0.57300851  0.77512160  0.18555962     0.07100
C696        C  0.56539731  0.77913588  0.15767256    -0.27100
H697        H  0.65686753  0.77688801  0.20068215     0.11900
H698        H  0.69259768  0.77898510  0.16441418     0.13000
H699        H  0.55628156  0.78531220  0.10317862     0.12100
H700        H  0.59195143  0.78732575  0.06696295     0.11300
H701        H  0.64076085  0.78429856  0.05297585     0.16700
H702        H  0.70521108  0.77882899  0.11495408     0.12600
H703        H  0.60759837  0.77308193  0.21420129     0.15500
H704        H  0.54360344  0.77874570  0.15177077     0.15200
C705        C  0.80035292  0.64893897  0.16827520    -0.17600
C706        C  0.80055635  0.66989717  0.14811738    -0.19800
C707        C  0.79299747  0.66405087  0.12062578     0.20800
C708        C  0.78608612  0.63658293  0.11321962    -0.02700
C709        C  0.78553739  0.61552031  0.13359904    -0.05800
C710        C  0.79239452  0.62178941  0.16135563     0.21100
C711        C  0.77706811  0.58843351  0.12637358     0.19300
C712        C  0.77042856  0.58233522  0.09875141    -0.17300
C713        C  0.77133169  0.60308517  0.07853595    -0.19500
C714        C  0.77862415  0.63033404  0.08566579     0.20800
C715        C  0.77730291  0.65161931  0.06594685    -0.32500
C716        C  0.78246543  0.67936685  0.07343836     0.01500
C717        C  0.79105571  0.68531629  0.10070459    -0.23800
C718        C  0.79017172  0.60102795  0.18177490    -0.28400
C719        C  0.78061759  0.57441664  0.17471888     0.07100
C720        C  0.77445129  0.56815546  0.14703529    -0.27100
H721        H  0.80577441  0.65412375  0.18943450     0.11900
H722        H  0.80608928  0.69081191  0.15416323     0.13000
H723        H  0.76404194  0.56161439  0.09286797     0.12100
H724        H  0.76559116  0.59797004  0.05744134     0.11300
H725        H  0.77063122  0.64669080  0.04507128     0.16700
H726        H  0.79523451  0.70656995  0.10668202     0.12600
H727        H  0.79463194  0.60583827  0.20326004     0.15500
H728        H  0.76697619  0.54761056  0.14174745     0.15200
C729        C  0.91685593  0.71583271  0.89957379    -0.17600
C730        C  0.89680721  0.71695340  0.92062836    -0.19800
C731        C  0.86839038  0.71874905  0.91409515     0.20800
C732        C  0.86006274  0.71846939  0.88601288    -0.02700
C733        C  0.88033048  0.71740443  0.86474475    -0.05800
C734        C  0.90885492  0.71653517  0.87158809     0.21100
C735        C  0.87207330  0.71823549  0.83667615     0.19300
C736        C  0.84359955  0.71912327  0.83015153    -0.17300
C737        C  0.82352551  0.72014322  0.85118729    -0.19500
C738        C  0.83155326  0.72032760  0.87914960     0.20800
C739        C  0.81167654  0.72339327  0.90030312    -0.32500
C740        C  0.81996302  0.72471337  0.92815369     0.01500
C741        C  0.84822923  0.72185440  0.93502794    -0.23800
C742        C  0.92892570  0.71743323  0.85041246    -0.28400
C743        C  0.92098240  0.71953418  0.82234561     0.07100
C744        C  0.89241087  0.71920467  0.81568376    -0.27100
H745        H  0.93865999  0.71503805  0.90518742     0.11900
H746        H  0.90358587  0.71699550  0.94205428     0.13000
H747        H  0.83684745  0.71962631  0.80872556     0.12100
H748        H  0.80174376  0.72140445  0.84556868     0.11300
H749        H  0.78985961  0.72577392  0.89510566     0.16700
H750        H  0.85455511  0.72306721  0.95656543     0.12600
H751        H  0.95077648  0.71756747  0.85593164     0.15500
H752        H  0.88593559  0.72077874  0.79422034     0.15200
C753        C  0.57200491  0.37051215  0.90298463    -0.17600
C754        C  0.57220152  0.35007800  0.88229055    -0.19800
C755        C  0.55456216  0.35225676  0.85917338     0.20800
C756        C  0.53732237  0.37588468  0.85647994    -0.02700
C757        C  0.53706085  0.39641922  0.87735993    -0.05800
C758        C  0.55413009  0.39350992  0.90100530     0.21100
C759        C  0.51872567  0.41919715  0.87514370     0.19300
C760        C  0.50188684  0.42206237  0.85158417    -0.17300
C761        C  0.50223741  0.40185309  0.83090475    -0.19500
C762        C  0.51934863  0.37842548  0.83352955     0.20800
C763        C  0.51773140  0.35690883  0.81424684    -0.32500
C764        C  0.53362079  0.33263994  0.81745808     0.01500
C765        C  0.55282809  0.33076529  0.83938676    -0.23800
C766        C  0.55198570  0.41291329  0.92275190    -0.28400
C767        C  0.53243532  0.43461773  0.92127612     0.07100
C768        C  0.51652118  0.43801909  0.89708178    -0.27100
H769        H  0.58532190  0.36794062  0.92091298     0.11900
H770        H  0.58566443  0.33221104  0.88472511     0.13000
H771        H  0.48786750  0.43955629  0.84951159     0.12100
H772        H  0.48848331  0.40413071  0.81325244     0.11300
H773        H  0.50319339  0.35857397  0.79712313     0.16700
H774        H  0.56510972  0.31207282  0.84191262     0.12600
H775        H  0.56415762  0.41012948  0.94145195     0.15500
H776        H  0.50157240  0.45484503  0.89579528     0.15200
C777        C  0.47172881  0.10321232  0.66990692    -0.17600
C778        C  0.47141319  0.08245347  0.64964966    -0.19800
C779        C  0.47117599  0.08942712  0.62139010     0.20800
C780        C  0.47075351  0.11761381  0.61349780    -0.02700
C781        C  0.47110249  0.13856939  0.63394583    -0.05800
C782        C  0.47181356  0.13132107  0.66227284     0.21100
C783        C  0.47143020  0.16674185  0.62600189     0.19300
C784        C  0.47092805  0.17372886  0.59776979    -0.17300
C785        C  0.47054811  0.15299272  0.57753585    -0.19500
C786        C  0.47069919  0.12489923  0.58517302     0.20800
C787        C  0.47166159  0.10403094  0.56495734    -0.32500
C788        C  0.47306307  0.07585705  0.57257749     0.01500
C789        C  0.47221041  0.06875242  0.60091484    -0.23800
C790        C  0.47334765  0.15226385  0.68242226    -0.28400
C791        C  0.47445335  0.18043419  0.67465521     0.07100
C792        C  0.47299793  0.18743634  0.64635460    -0.27100
H793        H  0.47228591  0.09726763  0.69156065     0.11900
H794        H  0.47174636  0.06092193  0.65609359     0.13000
H795        H  0.47119208  0.19525855  0.59131422     0.12100
H796        H  0.47054003  0.15894258  0.55587800     0.11300
H797        H  0.47232907  0.10984712  0.54326428     0.16700
H798        H  0.47327668  0.04716517  0.60711658     0.12600
H799        H  0.47456259  0.14653662  0.70411555     0.15500
H800        H  0.47387379  0.20900320  0.64004928     0.15200
C801        C  0.33081267  0.24854141  0.84628262    -0.17600
C802        C  0.35182741  0.24986318  0.82633651    -0.19800
C803        C  0.37709849  0.23592952  0.83053260     0.20800
C804        C  0.38095464  0.21959843  0.85451580    -0.02700
C805        C  0.35969799  0.21822091  0.87465618    -0.05800
C806        C  0.33477021  0.23321309  0.87068494     0.21100
C807        C  0.36382782  0.20281651  0.89923723     0.19300
C808        C  0.38897124  0.18845431  0.90308916    -0.17300
C809        C  0.41007045  0.18978847  0.88306431    -0.19500
C810        C  0.40641213  0.20553975  0.85884794     0.20800
C811        C  0.42803583  0.20837846  0.83937241    -0.32500
C812        C  0.42453745  0.22569157  0.81621575     0.01500
C813        C  0.39895095  0.23893056  0.81166403    -0.23800
C814        C  0.31474713  0.23367257  0.89171973    -0.28400
C815        C  0.31912683  0.21921509  0.91660693     0.07100
C816        C  0.34326078  0.20311738  0.92000028    -0.27100
H817        H  0.31172806  0.26002490  0.84292672     0.11900
H818        H  0.34856003  0.26233734  0.80790410     0.13000
H819        H  0.39253612  0.17661331  0.92184748     0.12100
H820        H  0.42946545  0.17892573  0.88677303     0.11300
H821        H  0.44793368  0.19835450  0.84289234     0.16700
H822        H  0.39633824  0.25217838  0.79364047     0.12600
H823        H  0.29615275  0.24619559  0.88923788     0.15500
H824        H  0.34679831  0.19237282  0.93942402     0.15200
C825        C  0.42411194  0.40603545  0.72503436    -0.17600
C826        C  0.40343230  0.42638749  0.72617111    -0.19800
C827        C  0.37562970  0.41967753  0.72035067     0.20800
C828        C  0.36868534  0.39241837  0.71232078    -0.02700
C829        C  0.38965437  0.37189627  0.71083488    -0.05800
C830        C  0.41735354  0.37867578  0.71784662     0.21100
C831        C  0.38269946  0.34435947  0.70362524     0.19300
C832        C  0.35494313  0.33787589  0.69718662    -0.17300
C833        C  0.33411529  0.35818812  0.69886819    -0.19500
C834        C  0.34068781  0.38541388  0.70688308     0.20800
C835        C  0.31970227  0.40547620  0.71053706    -0.32500
C836        C  0.32643376  0.43250600  0.71941758     0.01500
C837        C  0.35457476  0.43953000  0.72350374    -0.23800
C838        C  0.43754369  0.35773104  0.71894983    -0.28400
C839        C  0.43055721  0.33014257  0.71290351     0.07100
C840        C  0.40335352  0.32362031  0.70442055    -0.27100
H841        H  0.44528544  0.41155761  0.73037406     0.11900
H842        H  0.40909283  0.44725686  0.73232216     0.13000
H843        H  0.34919692  0.31688302  0.69154997     0.12100
H844        H  0.31278795  0.35245887  0.69446128     0.11300
H845        H  0.29813942  0.39983440  0.70721051     0.16700
H846        H  0.36009360  0.46019708  0.73042241     0.12600
H847        H  0.45846691  0.36260425  0.72580484     0.15500
H848        H  0.39789583  0.30220021  0.70027086     0.15200
C849        C  0.12823537  0.42687021  0.64655219    -0.17600
C850        C  0.10867273  0.42536710  0.62497250    -0.19800
C851        C  0.10835700  0.44541913  0.60380777     0.20800
C852        C  0.12866589  0.46662811  0.60400168    -0.02700
C853        C  0.14815103  0.46831504  0.62587048    -0.05800
C854        C  0.14778450  0.44854510  0.64750079     0.21100
C855        C  0.16735389  0.49042414  0.62655000     0.19300
C856        C  0.16781481  0.50994604  0.60499587    -0.17300
C857        C  0.14875294  0.50813987  0.58329827    -0.19500
C858        C  0.12880490  0.48693560  0.58295504     0.20800
C859        C  0.10807132  0.48670717  0.56273598    -0.32500
C860        C  0.08650946  0.46702867  0.56345727     0.01500
C861        C  0.08733885  0.44562238  0.58332419    -0.23800
C862        C  0.16637229  0.45139115  0.67000687    -0.28400
C863        C  0.18469483  0.47417351  0.67123784     0.07100
C864        C  0.18528646  0.49321071  0.64914446    -0.27100
H865        H  0.12764361  0.41142322  0.66285847     0.11900
H866        H  0.09338770  0.40885095  0.62518389     0.13000
H867        H  0.18255802  0.52693256  0.60520831     0.12100
H868        H  0.14908670  0.52384218  0.56718819     0.11300
H869        H  0.10778788  0.50300082  0.54718899     0.16700
H870        H  0.07076664  0.43038512  0.58396587     0.12600
H871        H  0.16577989  0.43667422  0.68698150     0.15500
H872        H  0.19957988  0.51060183  0.64972620     0.15200
C873        C  0.85572854  0.53574013  0.41693819    -0.17600
C874        C  0.83537914  0.53666095  0.39629102    -0.19800
C875        C  0.84293271  0.53586554  0.36823126     0.20800
C876        C  0.87132801  0.53493008  0.36080605    -0.02700
C877        C  0.89192877  0.53404965  0.38169376    -0.05800
C878        C  0.88401048  0.53405698  0.40986166     0.21100
C879        C  0.92032158  0.53221942  0.37440839     0.19300
C880        C  0.92786709  0.53208469  0.34627032    -0.17300
C881        C  0.90743694  0.53288792  0.32554856    -0.19500
C882        C  0.87906451  0.53387691  0.33260396     0.20800
C883        C  0.85828763  0.53268455  0.31207535    -0.32500
C884        C  0.82986110  0.53231798  0.31947461     0.01500
C885        C  0.82249826  0.53482685  0.34758409    -0.23800
C886        C  0.90434851  0.53143610  0.43052836    -0.28400
C887        C  0.93264587  0.52853022  0.42355697     0.07100
C888        C  0.94050466  0.52960739  0.39537404    -0.27100
H889        H  0.84932130  0.53581331  0.43842898     0.11900
H890        H  0.81361767  0.53740024  0.40231890     0.13000
H891        H  0.94960719  0.53078638  0.34025803     0.12100
H892        H  0.91379426  0.53216823  0.30405047     0.11300
H893        H  0.86427607  0.53079510  0.29052589     0.16700
H894        H  0.80072990  0.53469236  0.35362067     0.12600
H895        H  0.89797468  0.53071991  0.45203895     0.15500
H896        H  0.96224441  0.52739890  0.38964525     0.15200
C897        C  0.10341474  0.66637195  0.50659129    -0.17600
C898        C  0.08310464  0.64573033  0.50554722    -0.19800
C899        C  0.08624286  0.62306465  0.48764197     0.20800
C900        C  0.10959506  0.62150702  0.46996495    -0.02700
C901        C  0.13015453  0.64243153  0.47100616    -0.05800
C902        C  0.12714538  0.66466235  0.48974348     0.21100
C903        C  0.15408180  0.64066887  0.45402464     0.19300
C904        C  0.15683136  0.61812900  0.43578514    -0.17300
C905        C  0.13644032  0.59729582  0.43480901    -0.19500
C906        C  0.11286200  0.59860165  0.45201301     0.20800
C907        C  0.09308342  0.57697455  0.45248624    -0.32500
C908        C  0.07056743  0.57796115  0.47112326     0.01500
C909        C  0.06695980  0.60140006  0.48801325    -0.23800
C910        C  0.14831994  0.68435951  0.49204732    -0.28400
C911        C  0.17259066  0.68244469  0.47590594     0.07100
C912        C  0.17513465  0.66097802  0.45632947    -0.27100
H913        H  0.10082334  0.68342508  0.52100274     0.11900
H914        H  0.06523557  0.64718799  0.51916962     0.13000
H915        H  0.17500867  0.61634859  0.42260709     0.12100
H916        H  0.13936565  0.57989871  0.42092073     0.11300
H917        H  0.09605204  0.55879332  0.43963563     0.16700
H918        H  0.04954308  0.60227134  0.50230417     0.12600
H919        H  0.14620554  0.70104907  0.50698853     0.15500
H920        H  0.19391030  0.65937820  0.44396540     0.15200
C921        C  0.00492406  0.58124194  0.64575719    -0.17600
C922        C  0.00419900  0.60196878  0.66588279    -0.19800
C923        C  0.98579929  0.62438785  0.66326092     0.20800
C924        C  0.96757701  0.62582145  0.64039714    -0.02700
C925        C  0.96831529  0.60478992  0.61997502    -0.05800
C926        C  0.98725955  0.58259333  0.62267592     0.21100
C927        C  0.95071581  0.60632340  0.59657159     0.19300
C928        C  0.93233154  0.62889772  0.59409218    -0.17300
C929        C  0.93159443  0.64978966  0.61437993    -0.19500
C930        C  0.94922586  0.64857415  0.63760430     0.20800
C931        C  0.94957842  0.66999706  0.65761928    -0.32500
C932        C  0.96847347  0.66891467  0.67993533     0.01500
C933        C  0.98604831  0.64579601  0.68273697    -0.23800
C934        C  0.98896370  0.56253415  0.60185313    -0.28400
C935        C  0.97218074  0.56412438  0.57804393     0.07100
C936        C  0.95256059  0.58576322  0.57575506    -0.27100
H937        H  0.01961335  0.56433340  0.64804745     0.11900
H938        H  0.01833714  0.60066364  0.68332542     0.13000
H939        H  0.91873606  0.63058680  0.57626868     0.12100
H940        H  0.91744668  0.66708803  0.61171873     0.11300
H941        H  0.93628470  0.68798833  0.65511783     0.16700
H942        H  0.00064672  0.64488037  0.69985886     0.12600
H943        H  0.00411975  0.54595879  0.60377334     0.15500
H944        H  0.93985886  0.58737019  0.55727447     0.15200
C945        C  0.34851101  0.00544989  0.42014112    -0.17600
C946        C  0.32811031  0.00495140  0.39957999    -0.19800
C947        C  0.33162208  0.02032588  0.37514709     0.20800
C948        C  0.35523156  0.03744056  0.37187843    -0.02700
C949        C  0.37590992  0.03790302  0.39267720    -0.05800
C950        C  0.37270653  0.02131925  0.41656985     0.21100
C951        C  0.40033159  0.05384303  0.38898704     0.19300
C952        C  0.40322529  0.07000121  0.36490028    -0.17300
C953        C  0.38264121  0.06961110  0.34427528    -0.19500
C954        C  0.35881204  0.05298047  0.34728939     0.20800
C955        C  0.33923591  0.05043025  0.32568235    -0.32500
C956        C  0.31676816  0.03191374  0.32830163     0.01500
C957        C  0.31264037  0.01769552  0.35337239    -0.23800
C958        C  0.39430623  0.01976491  0.43587242    -0.28400
C959        C  0.41921467  0.03444696  0.43180826     0.07100
C960        C  0.42185967  0.05223654  0.40881823    -0.27100
H961        H  0.34573788  0.99275545  0.43850167     0.11900
H962        H  0.30998645  0.99189370  0.40242358     0.13000
H963        H  0.42174211  0.08242467  0.36168832     0.12100
H964        H  0.38574130  0.08173400  0.32561239     0.11300
H965        H  0.34244279  0.06134684  0.30629807     0.16700
H966        H  0.29513673  0.00364115  0.35547083     0.12600
H967        H  0.39222806  0.00612379  0.45366798     0.15500
H968        H  0.44118074  0.06338050  0.40552842     0.15200
C969        C  0.28111250  0.07372651  0.09619158    -0.17600
C970        C  0.28071903  0.09396211  0.07538367    -0.19800
C971        C  0.28452309  0.12204652  0.08198794     0.20800
C972        C  0.28948928  0.12971835  0.10977191    -0.02700
C973        C  0.28982913  0.10927698  0.13080692    -0.05800
C974        C  0.28526266  0.08121125  0.12398891     0.21100
C975        C  0.29370366  0.11705748  0.15873424     0.19300
C976        C  0.29821166  0.14506902  0.16524260    -0.17300
C977        C  0.29794512  0.16530076  0.14440852    -0.19500
C978        C  0.29312840  0.15789618  0.11669334     0.20800
C979        C  0.29087238  0.17825816  0.09598221    -0.32500
C980        C  0.28482279  0.17091197  0.06837322     0.01500
C981        C  0.28242399  0.14263886  0.06146629    -0.23800
C982        C  0.28374320  0.06126908  0.14514977    -0.28400
C983        C  0.28609784  0.06900209  0.17320819     0.07100
C984        C  0.29185672  0.09689435  0.17973530    -0.27100
H985        H  0.27757326  0.05226085  0.09059974     0.11900
H986        H  0.27690208  0.08768807  0.05417337     0.13000
H987        H  0.30135095  0.15141944  0.18653915     0.12100
H988        H  0.30090293  0.18683531  0.15007034     0.11300
H989        H  0.29290852  0.19992198  0.10158474     0.16700
H990        H  0.27770539  0.13667332  0.04033795     0.12600
H991        H  0.27926159  0.03991651  0.13977279     0.15500
H992        H  0.29382779  0.10313034  0.20121435     0.15200
C993        C  0.22617888  0.82923022  0.35112960    -0.17600
C994        C  0.22539509  0.84895280  0.32988383    -0.19800
C995        C  0.21934627  0.87679451  0.33578844     0.20800
C996        C  0.21352631  0.88479051  0.36332974    -0.02700
C997        C  0.21463209  0.86490173  0.38484527    -0.05800
C998        C  0.22112580  0.83704127  0.37867498     0.21100
C999        C  0.21007467  0.87304392  0.41256146     0.19300
C1000       C  0.20378293  0.90087913  0.41841917    -0.17300
C1001       C  0.20253655  0.92057362  0.39708131    -0.19500
C1002       C  0.20766736  0.91282335  0.36950564     0.20800
C1003       C  0.20834264  0.93275013  0.34818937    -0.32500
C1004       C  0.21523303  0.92497075  0.32099290     0.01500
C1005       C  0.22026833  0.89697466  0.31484504    -0.23800
C1006       C  0.22326256  0.81758666  0.40018113    -0.28400
C1007       C  0.21954796  0.82558814  0.42797059     0.07100
C1008       C  0.21261352  0.85336771  0.43394996    -0.27100
H1009       H  0.23124453  0.80793510  0.34606782     0.11900
H1010       H  0.22994390  0.84249633  0.30886353     0.13000
H1011       H  0.20020374  0.90750666  0.43956710     0.12100
H1012       H  0.19808101  0.94198693  0.40222311     0.11300
H1013       H  0.20522240  0.95448665  0.35300288     0.16700
H1014       H  0.22622008  0.89115970  0.29395871     0.12600
H1015       H  0.22882148  0.79636746  0.39528158     0.15500
H1016       H  0.20972523  0.85982091  0.45526508     0.15200
C1017       C  0.40948186  0.88090696  0.19143713    -0.17600
C1018       C  0.38985758  0.90245676  0.19092323    -0.19800
C1019       C  0.36480247  0.90017693  0.20578677     0.20800
C1020       C  0.35932771  0.87565040  0.22092467    -0.02700
C1021       C  0.37906942  0.85394627  0.22141291    -0.05800
C1022       C  0.40441451  0.85664797  0.20679231     0.21100
C1023       C  0.37381475  0.82994173  0.23735002     0.19300
C1024       C  0.34868315  0.82739625  0.25192832    -0.17300
C1025       C  0.32916538  0.84883147  0.25143862    -0.19500
C1026       C  0.33450870  0.87313975  0.23637531     0.20800
C1027       C  0.31586133  0.89534483  0.23734605    -0.32500
C1028       C  0.32142651  0.92005041  0.22299594     0.01500
C1029       C  0.34555060  0.92224581  0.20664074    -0.23800
C1030       C  0.42458593  0.83551142  0.20870776    -0.28400
C1031       C  0.41980295  0.81218016  0.22558018     0.07100
C1032       C  0.39420352  0.80934183  0.23934989    -0.27100
H1033       H  0.42883894  0.88340999  0.18016668     0.11900
H1034       H  0.39448962  0.92110369  0.17926003     0.13000
H1035       H  0.34435529  0.80902915  0.26417712     0.12100
H1036       H  0.31013222  0.84662863  0.26329173     0.11300
H1037       H  0.29719534  0.89373070  0.24991384     0.16700
H1038       H  0.34992853  0.94146059  0.19581118     0.12600
H1039       H  0.44452158  0.83792842  0.19843877     0.15500
H1040       H  0.39054506  0.79137991  0.25243114     0.15200
C1041       C  0.82520956  0.84639806  0.73290602    -0.17600
C1042       C  0.84583844  0.82606950  0.73218076    -0.19800
C1043       C  0.87255101  0.83245519  0.72236284     0.20800
C1044       C  0.87840392  0.85926328  0.71220250    -0.02700
C1045       C  0.85738257  0.87966683  0.71240284    -0.05800
C1046       C  0.83092055  0.87329334  0.72346992     0.21100
C1047       C  0.86316969  0.90670873  0.70270763     0.19300
C1048       C  0.88980766  0.91284933  0.69236727    -0.17300
C1049       C  0.91085533  0.89270231  0.69265600    -0.19500
C1050       C  0.90549895  0.86597226  0.70298764     0.20800
C1051       C  0.92688729  0.84614557  0.70533868    -0.32500
C1052       C  0.92115820  0.81963095  0.71621848     0.01500
C1053       C  0.89377432  0.81276351  0.72375436    -0.23800
C1054       C  0.81098363  0.89419977  0.72607694    -0.28400
C1055       C  0.81689489  0.92126897  0.71733643     0.07100
C1056       C  0.84259091  0.92733639  0.70479052    -0.27100
H1057       H  0.80496542  0.84123435  0.74133549     0.11900
H1058       H  0.84111797  0.80553223  0.74006165     0.13000
H1059       H  0.89460327  0.93348498  0.68478573     0.12100
H1060       H  0.93143078  0.89817430  0.68530480     0.11300
H1061       H  0.94796297  0.85149331  0.69938569     0.16700
H1062       H  0.88923065  0.79248269  0.73239253     0.12600
H1063       H  0.79109739  0.88967620  0.73571646     0.15500
H1064       H  0.84714598  0.94841828  0.69836033     0.15200
C1065       C  0.59601119  0.07992622  0.77130327    -0.17600
C1066       C  0.57648577  0.10147558  0.77132799    -0.19800
C1067       C  0.58491465  0.12899196  0.77579631     0.20800
C1068       C  0.61321560  0.13481672  0.78085532    -0.02700
C1069       C  0.63292143  0.11302776  0.78099892    -0.05800
C1070       C  0.62432191  0.08551199  0.77586371     0.21100
C1071       C  0.66131651  0.11891653  0.78549610     0.19300
C1072       C  0.66967851  0.14637113  0.79034929    -0.17300
C1073       C  0.65019754  0.16796552  0.79005066    -0.19500
C1074       C  0.62195118  0.16247118  0.78499984     0.20800
C1075       C  0.60246852  0.18420751  0.78324296    -0.32500
C1076       C  0.57427006  0.17864409  0.77753505     0.01500
C1077       C  0.56566569  0.15084130  0.77445693    -0.23800
C1078       C  0.64425109  0.06421380  0.77448970    -0.28400
C1079       C  0.67277326  0.07007162  0.77799579     0.07100
C1080       C  0.68097196  0.09742999  0.78415335    -0.27100
H1081       H  0.58903212  0.05897296  0.76733542     0.11900
H1082       H  0.55478107  0.09664999  0.76737928     0.13000
H1083       H  0.69144309  0.15124404  0.79389101     0.12100
H1084       H  0.65727971  0.18899280  0.79336590     0.11300
H1085       H  0.60937182  0.20543798  0.78566318     0.16700
H1086       H  0.54405293  0.14617132  0.76989007     0.12600
H1087       H  0.63762117  0.04330470  0.76968319     0.15500
H1088       H  0.70285093  0.10228038  0.78692743     0.15200
C1089       C  0.60237468  0.95467484  0.66398927    -0.17600
C1090       C  0.58209438  0.95583989  0.64328763    -0.19800
C1091       C  0.58968483  0.96034199  0.61557628     0.20800
C1092       C  0.61806274  0.96285992  0.60845856    -0.02700
C1093       C  0.63857187  0.96171051  0.62938914    -0.05800
C1094       C  0.63059610  0.95804655  0.65730727     0.21100
C1095       C  0.66689866  0.96530365  0.62251863     0.19300
C1096       C  0.67452148  0.96907994  0.59466459    -0.17300
C1097       C  0.65418734  0.97017758  0.57389166    -0.19500
C1098       C  0.62585354  0.96751239  0.58062810     0.20800
C1099       C  0.60514175  0.97038694  0.56022947    -0.32500
C1100       C  0.57671991  0.96899147  0.56741655     0.01500
C1101       C  0.56929964  0.96331936  0.59506190    -0.23800
C1102       C  0.65075411  0.95910052  0.67824755    -0.28400
C1103       C  0.67883959  0.96423542  0.67179251     0.07100
C1104       C  0.68688032  0.96633319  0.64374424    -0.27100
H1105       H  0.59593758  0.95179385  0.68528367     0.11900
H1106       H  0.56035088  0.95378471  0.64906285     0.13000
H1107       H  0.69621900  0.97181235  0.58898964     0.12100
H1108       H  0.66056717  0.97367865  0.55267091     0.11300
H1109       H  0.61113106  0.97482765  0.53905128     0.16700
H1110       H  0.54750437  0.96205665  0.60087128     0.12600
H1111       H  0.64430749  0.95728724  0.69967554     0.15500
H1112       H  0.70849013  0.97024055  0.63844625     0.15200
C1113       C  0.67439689  0.86657725  0.84713448    -0.17600
C1114       C  0.67406459  0.84641464  0.86820325    -0.19800
C1115       C  0.69052607  0.84957904  0.89207777     0.20800
C1116       C  0.70654679  0.87398053  0.89513187    -0.02700
C1117       C  0.70696445  0.89423344  0.87386549    -0.05800
C1118       C  0.69125912  0.89030395  0.84944105     0.21100
C1119       C  0.72424654  0.91774704  0.87650961     0.19300
C1120       C  0.73974697  0.92164679  0.90080817    -0.17300
C1121       C  0.73927695  0.90172184  0.92180781    -0.19500
C1122       C  0.72333589  0.87755653  0.91882847     0.20800
C1123       C  0.72515232  0.85631513  0.93848515    -0.32500
C1124       C  0.71061440  0.83130791  0.93498429     0.01500
C1125       C  0.69245816  0.82833218  0.91225519    -0.23800
C1126       C  0.69386432  0.90943169  0.82734298    -0.28400
C1127       C  0.71256095  0.93187521  0.82933243     0.07100
C1128       C  0.72692017  0.93626266  0.85430116    -0.27100
H1129       H  0.66206421  0.86319997  0.82865627     0.11900
H1130       H  0.66149237  0.82797071  0.86546421     0.13000
H1131       H  0.75292488  0.93971841  0.90321324     0.12100
H1132       H  0.75211172  0.90479974  0.94000910     0.11300
H1133       H  0.73903189  0.85869079  0.95605784     0.16700
H1134       H  0.68133579  0.80899161  0.90939501     0.12600
H1135       H  0.68281514  0.90589343  0.80809544     0.15500
H1136       H  0.74113799  0.95365261  0.85601698     0.15200
C1137       C  0.59983672  0.17107996  0.46509549    -0.17600
C1138       C  0.57914486  0.15073804  0.46399503    -0.19800
C1139       C  0.58632356  0.12255501  0.46301096     0.20800
C1140       C  0.61464341  0.11478133  0.46232064    -0.02700
C1141       C  0.63555279  0.13532160  0.46349510    -0.05800
C1142       C  0.62806341  0.16354902  0.46526159     0.21100
C1143       C  0.66388908  0.12755197  0.46384485     0.19300
C1144       C  0.67104505  0.09937784  0.46213946    -0.17300
C1145       C  0.65032242  0.07900952  0.46095588    -0.19500
C1146       C  0.62206959  0.08648405  0.46148694     0.20800
C1147       C  0.60117979  0.06614364  0.46241119    -0.32500
C1148       C  0.57292850  0.07373169  0.46453400     0.01500
C1149       C  0.56570120  0.10202391  0.46390686    -0.23800
C1150       C  0.64883975  0.18373756  0.46808829    -0.28400
C1151       C  0.67712107  0.17615872  0.46954608     0.07100
C1152       C  0.68448392  0.14801160  0.46679516    -0.27100
H1153       H  0.59376506  0.19264769  0.46637924     0.11900
H1154       H  0.55746188  0.15705528  0.46449670     0.13000
H1155       H  0.69272330  0.09303236  0.46226989     0.12100
H1156       H  0.65638364  0.05741111  0.46023731     0.11300
H1157       H  0.60703715  0.04446254  0.46282270     0.16700
H1158       H  0.54402366  0.10818612  0.46545050     0.12600
H1159       H  0.64284878  0.20529070  0.47009489     0.15500
H1160       H  0.70620107  0.14188618  0.46780163     0.15200
C1161       C  0.92485601  0.34621849  0.51147297    -0.17600
C1162       C  0.90429902  0.32570540  0.51160386    -0.19800
C1163       C  0.87769691  0.33140612  0.52217337     0.20800
C1164       C  0.87189174  0.35785711  0.53330855    -0.02700
C1165       C  0.89248136  0.37876809  0.53262167    -0.05800
C1166       C  0.91901587  0.37288633  0.52156210     0.21100
C1167       C  0.88622084  0.40575829  0.54212681     0.19300
C1168       C  0.85976241  0.41122516  0.55325390    -0.17300
C1169       C  0.83949374  0.39036118  0.55439895    -0.19500
C1170       C  0.84519847  0.36373257  0.54411183     0.20800
C1171       C  0.82434089  0.34329462  0.54321104    -0.32500
C1172       C  0.82968332  0.31754953  0.53073437     0.01500
C1173       C  0.85644782  0.31155020  0.52069503    -0.23800
C1174       C  0.93900321  0.39397060  0.51991127    -0.28400
C1175       C  0.93266812  0.42121513  0.52829026     0.07100
C1176       C  0.90626169  0.42691608  0.53961326    -0.27100
H1177       H  0.94512069  0.34141535  0.50289204     0.11900
H1178       H  0.90909494  0.30547300  0.50304485     0.13000
H1179       H  0.85460294  0.43177711  0.56075947     0.12100
H1180       H  0.81913605  0.39524726  0.56270850     0.11300
H1181       H  0.80351183  0.34802358  0.55043821     0.16700
H1182       H  0.86038762  0.29172163  0.51082393     0.12600
H1183       H  0.95912649  0.38941237  0.51083629     0.15500
H1184       H  0.90121553  0.44784140  0.54611781     0.15200
C1185       C  0.71977454  0.42153918  0.40049765    -0.17600
C1186       C  0.71794240  0.40134200  0.42123794    -0.19800
C1187       C  0.71711473  0.37311303  0.41430828     0.20800
C1188       C  0.71746779  0.36514617  0.38614770    -0.02700
C1189       C  0.71950579  0.38553961  0.36521931    -0.05800
C1190       C  0.72091443  0.41383750  0.37248095     0.21100
C1191       C  0.72096586  0.37756645  0.33712609     0.19300
C1192       C  0.71983661  0.34931857  0.33018038    -0.17300
C1193       C  0.71781090  0.32909729  0.35091426    -0.19500
C1194       C  0.71689530  0.33677571  0.37894402     0.20800
C1195       C  0.71676077  0.31661068  0.39993945    -0.32500
C1196       C  0.71760718  0.32451477  0.42790249     0.01500
C1197       C  0.71728133  0.35268698  0.43502900    -0.23800
C1198       C  0.72415748  0.43392725  0.35169268    -0.28400
C1199       C  0.72623671  0.42618307  0.32364223     0.07100
C1200       C  0.72423328  0.39791438  0.31653534    -0.27100
H1201       H  0.72079921  0.44317618  0.40640232     0.11900
H1202       H  0.71767015  0.40779198  0.44273895     0.13000
H1203       H  0.72094207  0.34283700  0.30872461     0.12100
H1204       H  0.71747402  0.30741525  0.34504223     0.11300
H1205       H  0.71774306  0.29479536  0.39458097     0.16700
H1206       H  0.71856849  0.35862611  0.45665633     0.12600
H1207       H  0.72571264  0.45557163  0.35747975     0.15500
H1208       H  0.72589383  0.39163704  0.29504611     0.15200
C1209       C  0.65249934  0.29444321  0.66959845    -0.17600
C1210       C  0.67281718  0.29352428  0.64884690    -0.19800
C1211       C  0.66512470  0.29251480  0.62081621     0.20800
C1212       C  0.63670843  0.29371502  0.61353854    -0.02700
C1213       C  0.61619342  0.29473855  0.63448129    -0.05800
C1214       C  0.62413820  0.29440306  0.66263422     0.21100
C1215       C  0.58774517  0.29467759  0.62724255     0.19300
C1216       C  0.58006753  0.29485124  0.59919134    -0.17300
C1217       C  0.60038665  0.29375062  0.57843746    -0.19500
C1218       C  0.62873693  0.29255371  0.58542119     0.20800
C1219       C  0.64913175  0.28894751  0.56487303    -0.32500
C1220       C  0.67743438  0.28625705  0.57207842     0.01500
C1221       C  0.68526806  0.28903014  0.60005859    -0.23800
C1222       C  0.60366667  0.29245555  0.68329462    -0.28400
C1223       C  0.57533435  0.29043221  0.67614685     0.07100
C1224       C  0.56752176  0.29284801  0.64811635    -0.27100
H1225       H  0.65894914  0.29434539  0.69107302     0.11900
H1226       H  0.69459200  0.29277531  0.65478012     0.13000
H1227       H  0.55826874  0.29494952  0.59328281     0.12100
H1228       H  0.59391181  0.29306060  0.55698329     0.11300
H1229       H  0.64281308  0.28704814  0.54342709     0.16700
H1230       H  0.70699507  0.28717240  0.60591287     0.12600
H1231       H  0.60993402  0.29092619  0.70479084     0.15500
H1232       H  0.54572964  0.29163548  0.64232594     0.15200
C1233       C  0.78387974  0.09986970  0.57925962    -0.17600
C1234       C  0.78294556  0.07933132  0.59974839    -0.19800
C1235       C  0.78135479  0.08659318  0.62787100     0.20800
C1236       C  0.78126009  0.11483157  0.63545797    -0.02700
C1237       C  0.78220870  0.13557984  0.61475898    -0.05800
C1238       C  0.78320803  0.12803878  0.58652468     0.21100
C1239       C  0.78132602  0.16382278  0.62229818     0.19300
C1240       C  0.78017637  0.17107977  0.65044156    -0.17300
C1241       C  0.77924173  0.15053586  0.67093631    -0.19500
C1242       C  0.77946789  0.12235934  0.66366256     0.20800
C1243       C  0.77721265  0.10163511  0.68404035    -0.32500
C1244       C  0.77658507  0.07339726  0.67663162     0.01500
C1245       C  0.77913911  0.06611777  0.64845297    -0.23800
C1246       C  0.78248607  0.14872413  0.56602825    -0.28400
C1247       C  0.78039215  0.17692926  0.57331585     0.07100
C1248       C  0.78058317  0.18427879  0.60157808    -0.27100
H1249       H  0.78465449  0.09370579  0.55769054     0.11900
H1250       H  0.78305655  0.05773349  0.59356230     0.13000
H1251       H  0.77951683  0.19267541  0.65660021     0.12100
H1252       H  0.77792050  0.15669921  0.69247766     0.11300
H1253       H  0.77520830  0.10756276  0.70560619     0.16700
H1254       H  0.77861843  0.04448526  0.64237963     0.12600
H1255       H  0.78236258  0.14273141  0.54438903     0.15500
H1256       H  0.77903473  0.20589633  0.60753220     0.15200
C1257       C  0.07897059  0.09712780  0.27887619    -0.17600
C1258       C  0.09985816  0.07695537  0.27807795    -0.19800
C1259       C  0.12801640  0.08469077  0.27879423     0.20800
C1260       C  0.13523200  0.11294742  0.28093857    -0.02700
C1261       C  0.11412990  0.13330802  0.28180120    -0.05800
C1262       C  0.08587926  0.12534326  0.28042590     0.21100
C1263       C  0.12131793  0.16162564  0.28313913     0.19300
C1264       C  0.14948991  0.16931994  0.28431158    -0.17300
C1265       C  0.17040257  0.14912936  0.28343335    -0.19500
C1266       C  0.16351258  0.12092682  0.28139800     0.20800
C1267       C  0.18434866  0.10064110  0.27900337    -0.32500
C1268       C  0.17728489  0.07246417  0.27606802     0.01500
C1269       C  0.14902876  0.06467390  0.27657047    -0.23800
C1270       C  0.06508207  0.14573575  0.27953975    -0.28400
C1271       C  0.07210479  0.17405883  0.27961682     0.07100
C1272       C  0.10028610  0.18179411  0.28220487    -0.27100
H1273       H  0.05736211  0.09065676  0.27779245     0.11900
H1274       H  0.09400484  0.05535627  0.27643383     0.13000
H1275       H  0.15534995  0.19095463  0.28538234     0.12100
H1276       H  0.19202586  0.15563174  0.28388211     0.11300
H1277       H  0.20604370  0.10690749  0.27867653     0.16700
H1278       H  0.14326698  0.04309063  0.27428628     0.12600
H1279       H  0.04347983  0.13948838  0.27749285     0.15500
H1280       H  0.10599726  0.20351521  0.28233097     0.15200
C1281       C  0.90547978  0.42114052  0.21124800    -0.17600
C1282       C  0.92589548  0.40040871  0.21019233    -0.19800
C1283       C  0.91829854  0.37229185  0.20981616     0.20800
C1284       C  0.88980784  0.36503769  0.21008599    -0.02700
C1285       C  0.86923290  0.38595816  0.21137191    -0.05800
C1286       C  0.87710801  0.41414947  0.21211721     0.21100
C1287       C  0.84083841  0.37860760  0.21272471     0.19300
C1288       C  0.83320602  0.35050877  0.21239842    -0.17300
C1289       C  0.85355102  0.32981153  0.21109472    -0.19500
C1290       C  0.88186380  0.33684015  0.21010229     0.20800
C1291       C  0.90237437  0.31616056  0.21036675    -0.32500
C1292       C  0.93066492  0.32324907  0.21097613     0.01500
C1293       C  0.93861099  0.35128078  0.21038898    -0.23800
C1294       C  0.85654046  0.43477458  0.21458295    -0.28400
C1295       C  0.82817322  0.42758626  0.21665426     0.07100
C1296       C  0.82056489  0.39939589  0.21521264    -0.27100
H1297       H  0.91192270  0.44268112  0.21185531     0.11900
H1298       H  0.94762571  0.40635660  0.21005930     0.13000
H1299       H  0.81151386  0.34452883  0.21353373     0.12100
H1300       H  0.84713464  0.30825208  0.21129681     0.11300
H1301       H  0.89636179  0.29451317  0.21175592     0.16700
H1302       H  0.96047011  0.35666090  0.21176590     0.12600
H1303       H  0.86273441  0.45635741  0.21584701     0.15500
H1304       H  0.79887320  0.39348783  0.21688111     0.15200
C1305       C  0.15289835  0.28240528  0.16952804    -0.17600
C1306       C  0.17376410  0.28281080  0.14921565    -0.19800
C1307       C  0.16690295  0.28062753  0.12102044     0.20800
C1308       C  0.13865468  0.27857174  0.11322317    -0.02700
C1309       C  0.11762155  0.27805838  0.13369741    -0.05800
C1310       C  0.12477088  0.27973771  0.16199945     0.21100
C1311       C  0.08948719  0.27516719  0.12581853     0.19300
C1312       C  0.08256054  0.27326835  0.09765958    -0.17300
C1313       C  0.10334022  0.27385025  0.07740768    -0.19500
C1314       C  0.13142119  0.27628756  0.08500116     0.20800
C1315       C  0.15236681  0.27556705  0.06483174    -0.32500
C1316       C  0.18065871  0.27651738  0.07237263     0.01500
C1317       C  0.18774061  0.27959031  0.10054537    -0.23800
C1318       C  0.10375695  0.27796410  0.18225393    -0.28400
C1319       C  0.07566921  0.27433992  0.17453505     0.07100
C1320       C  0.06878905  0.27348022  0.14620479    -0.27100
H1321       H  0.15878180  0.28375774  0.19111567     0.11900
H1322       H  0.19535847  0.28445138  0.15561584     0.13000
H1323       H  0.06102017  0.27098042  0.09127880     0.12100
H1324       H  0.09748593  0.27199035  0.05584966     0.11300
H1325       H  0.14656347  0.27307317  0.04330477     0.16700
H1326       H  0.20946927  0.28029686  0.10665049     0.12600
H1327       H  0.10937771  0.27860521  0.20396278     0.15500
H1328       H  0.04729251  0.27065415  0.13990474     0.15200
C1329       C  0.05407639  0.33014867  0.39298034    -0.17600
C1330       C  0.05426776  0.35050209  0.41372321    -0.19800
C1331       C  0.04417136  0.37731896  0.40829680     0.20800
C1332       C  0.03406798  0.38372098  0.38157686    -0.02700
C1333       C  0.03347161  0.36311143  0.36081147    -0.05800
C1334       C  0.04352565  0.33614683  0.36649835     0.21100
C1335       C  0.02211425  0.36933835  0.33456710     0.19300
C1336       C  0.01210069  0.39608891  0.32903410    -0.17300
C1337       C  0.01313050  0.41658334  0.34940814    -0.19500
C1338       C  0.02390318  0.41055688  0.37574056     0.20800
C1339       C  0.02390696  0.43076263  0.39651493    -0.32500
C1340       C  0.03305874  0.42443686  0.42345668     0.01500
C1341       C  0.04333713  0.39766223  0.42920266    -0.23800
C1342       C  0.04198119  0.31554720  0.34586013    -0.28400
C1343       C  0.02984731  0.32163453  0.32006460     0.07100
C1344       C  0.02019696  0.34851784  0.31453008    -0.27100
H1345       H  0.06178175  0.30958323  0.39778934     0.11900
H1346       H  0.06212468  0.34519581  0.43409133     0.13000
H1347       H  0.00327023  0.40111543  0.30898206     0.12100
H1348       H  0.00510343  0.43704583  0.34469972     0.11300
H1349       H  0.01549153  0.45113007  0.39199426     0.16700
H1350       H  0.05029104  0.39258516  0.44996001     0.12600
H1351       H  0.04887086  0.29459397  0.35026096     0.15500
H1352       H  0.01055243  0.35300583  0.29469690     0.15200
C1353       C  0.85410119  0.25973233  0.33288073    -0.17600
C1354       C  0.83369483  0.25985038  0.35343871    -0.19800
C1355       C  0.83368507  0.23942905  0.37414789     0.20800
C1356       C  0.85372653  0.21806012  0.37365851    -0.02700
C1357       C  0.87440717  0.21795544  0.35284047    -0.05800
C1358       C  0.87478191  0.23921521  0.33275284     0.21100
C1359       C  0.89527847  0.19729227  0.35274684     0.19300
C1360       C  0.89455998  0.17636819  0.37303293    -0.17300
C1361       C  0.87400051  0.17647226  0.39373018    -0.19500
C1362       C  0.85375516  0.19750124  0.39455351     0.20800
C1363       C  0.83432082  0.19911567  0.41644821    -0.32500
C1364       C  0.81538166  0.22136012  0.41771340     0.01500
C1365       C  0.81467147  0.24079995  0.39597674    -0.23800
C1366       C  0.89645624  0.24034875  0.31353389    -0.28400
C1367       C  0.91815069  0.22078308  0.31404662     0.07100
C1368       C  0.91702015  0.19866936  0.33309324    -0.27100
H1369       H  0.85411732  0.27612049  0.31746265     0.11900
H1370       H  0.81833995  0.27630350  0.35354419     0.13000
H1371       H  0.91028395  0.16026118  0.37327812     0.12100
H1372       H  0.87433482  0.16044628  0.40947791     0.11300
H1373       H  0.83494579  0.18408178  0.43314349     0.16700
H1374       H  0.79983960  0.25775223  0.39658122     0.12600
H1375       H  0.89692696  0.25718615  0.29858354     0.15500
H1376       H  0.93367046  0.18350387  0.33354075     0.15200
C1377       C  0.87783563  0.85429843  0.07312387    -0.17600
C1378       C  0.89922961  0.87409708  0.07187903    -0.19800
C1379       C  0.89874187  0.89521218  0.05178179     0.20800
C1380       C  0.87577069  0.89706509  0.03360175    -0.02700
C1381       C  0.85416361  0.87725459  0.03496978    -0.05800
C1382       C  0.85548972  0.85529986  0.05436353     0.21100
C1383       C  0.83193936  0.87866672  0.01593990     0.19300
C1384       C  0.83068258  0.90039143  0.99664602    -0.17300
C1385       C  0.85209330  0.91986124  0.99520399    -0.19500
C1386       C  0.87497789  0.91794951  0.01311070     0.20800
C1387       C  0.89762204  0.93582478  0.00998620    -0.32500
C1388       C  0.92117011  0.93336585  0.02703125     0.01500
C1389       C  0.92127147  0.91371721  0.04863039    -0.23800
C1390       C  0.83528024  0.83406210  0.05355548    -0.28400
C1391       C  0.81428653  0.83456331  0.03322667     0.07100
C1392       C  0.81214039  0.85751108  0.01539248    -0.27100
H1393       H  0.87917356  0.83775439  0.08827236     0.11900
H1394       H  0.91657173  0.87240337  0.08612454     0.13000
H1395       H  0.81361457  0.90177920  0.98205068     0.12100
H1396       H  0.85114094  0.93596399  0.97952251     0.11300
H1397       H  0.89729946  0.95127501  0.99360493     0.16700
H1398       H  0.93940870  0.91183157  0.06185039     0.12600
H1399       H  0.83693603  0.81641728  0.06738657     0.15500
H1400       H  0.79568620  0.85818954  0.00001997     0.15200
C1401       C  0.14719187  0.08151389  0.94893347    -0.17600
C1402       C  0.16834238  0.10146975  0.94951803    -0.19800
C1403       C  0.16231526  0.12905404  0.95656418     0.20800
C1404       C  0.13451824  0.13675240  0.96228329    -0.02700
C1405       C  0.11319084  0.11661067  0.96178886    -0.05800
C1406       C  0.11965043  0.08879909  0.95548456     0.21100
C1407       C  0.08559295  0.12414620  0.96854666     0.19300
C1408       C  0.07944856  0.15183237  0.97502045    -0.17300
C1409       C  0.10053761  0.17179675  0.97542001    -0.19500
C1410       C  0.12814257  0.16437925  0.96938469     0.20800
C1411       C  0.14956012  0.18397002  0.97124233    -0.32500
C1412       C  0.17749190  0.17630972  0.96666653     0.01500
C1413       C  0.18364372  0.14886947  0.95885102    -0.23800
C1414       C  0.09871444  0.06855949  0.95694537    -0.28400
C1415       C  0.07139717  0.07568392  0.96491362     0.07100
C1416       C  0.06485919  0.10369621  0.96982469    -0.27100
H1417       H  0.15247218  0.06028241  0.94395497     0.11900
H1418       H  0.18954698  0.09519415  0.94493496     0.13000
H1419       H  0.05836562  0.15797498  0.98028619     0.12100
H1420       H  0.09534726  0.19291757  0.98093891     0.11300
H1421       H  0.14451541  0.20496051  0.97741988     0.16700
H1422       H  0.20508151  0.14274807  0.95523722     0.12600
H1423       H  0.10397149  0.04709847  0.95293031     0.15500
H1424       H  0.04392080  0.10945003  0.97602411     0.15200
C1425       C  0.03216083  0.82549342  0.90018992    -0.17600
C1426       C  0.03338754  0.84594229  0.92070618    -0.19800
C1427       C  0.03675389  0.87393864  0.91346609     0.20800
C1428       C  0.04013270  0.88128634  0.88532900    -0.02700
C1429       C  0.03855407  0.86065684  0.86458413    -0.05800
C1430       C  0.03405479  0.83270754  0.87205796     0.21100
C1431       C  0.04019326  0.86818391  0.83636389     0.19300
C1432       C  0.04467542  0.89605959  0.82918420    -0.17300
C1433       C  0.04642757  0.91647396  0.84972622    -0.19500
C1434       C  0.04361277  0.90939906  0.87781986     0.20800
C1435       C  0.04263593  0.93002059  0.89838579    -0.32500
C1436       C  0.03751410  0.92286925  0.92615523     0.01500
C1437       C  0.03525723  0.89482439  0.93367129    -0.23800
C1438       C  0.03028264  0.81265978  0.85130471    -0.28400
C1439       C  0.03038078  0.82020242  0.82308275     0.07100
C1440       C  0.03614885  0.84793938  0.81582901    -0.27100
H1441       H  0.02887169  0.80411349  0.90630314     0.11900
H1442       H  0.03097196  0.83992872  0.94221595     0.13000
H1443       H  0.04613879  0.90218869  0.80762095     0.12100
H1444       H  0.04916767  0.93792003  0.84358116     0.11300
H1445       H  0.04386554  0.95171958  0.89257647     0.16700
H1446       H  0.03098341  0.88940953  0.95507426     0.12600
H1447       H  0.02597041  0.79139684  0.85722898     0.15500
H1448       H  0.03652846  0.85401986  0.79419857     0.15200
C1449       C  0.17369694  0.96063231  0.09637791    -0.17600
C1450       C  0.15337245  0.96080466  0.07555026    -0.19800
C1451       C  0.12507522  0.96374918  0.08232903     0.20800
C1452       C  0.11719143  0.96574849  0.11043878    -0.02700
C1453       C  0.13770514  0.96565424  0.13143514    -0.05800
C1454       C  0.16613712  0.96344837  0.12435300     0.21100
C1455       C  0.12978439  0.96858929  0.15943122     0.19300
C1456       C  0.10148498  0.97096664  0.16629500    -0.17300
C1457       C  0.08120786  0.97097945  0.14554032    -0.19500
C1458       C  0.08885826  0.96867938  0.11758049     0.20800
C1459       C  0.06871457  0.97019236  0.09665235    -0.32500
C1460       C  0.07637926  0.96938952  0.06849570     0.01500
C1461       C  0.10463840  0.96561694  0.06151102    -0.23800
C1462       C  0.18647871  0.96498045  0.14527201    -0.28400
C1463       C  0.17876891  0.96882434  0.17320354     0.07100
C1464       C  0.15027233  0.96997781  0.18006277    -0.27100
H1465       H  0.19544123  0.95879530  0.09053104     0.11900
H1466       H  0.15981846  0.95910943  0.05413798     0.13000
H1467       H  0.09507134  0.97324150  0.18766354     0.12100
H1468       H  0.05949708  0.97327436  0.15136226     0.11300
H1469       H  0.04707375  0.97319746  0.10239246     0.16700
H1470       H  0.11082225  0.96491741  0.03994498     0.12600
H1471       H  0.20834049  0.96405997  0.13966236     0.15500
H1472       H  0.14396285  0.97297907  0.20139208     0.15200
C1473       C  0.85010437  0.06694803  0.87600986    -0.14400
C1474       C  0.87121080  0.06697446  0.89609486    -0.19800
C1475       C  0.89330680  0.04793505  0.89460201     0.20800
C1476       C  0.89449928  0.02920865  0.87214145    -0.02700
C1477       C  0.87324727  0.02919303  0.85190022    -0.05800
C1478       C  0.85067731  0.04788692  0.85402434     0.21100
C1479       C  0.87405987  0.00969791  0.83014796     0.19300
C1480       C  0.89645137  0.99113500  0.82813472    -0.17300
C1481       C  0.91743500  0.99113495  0.84813902    -0.19500
C1482       C  0.91635012  0.00972413  0.87045295     0.20800
C1483       C  0.93612133  0.00833205  0.89168289    -0.32500
C1484       C  0.93448800  0.02606050  0.91476405     0.01500
C1485       C  0.91355464  0.04646093  0.91569665    -0.23800
C1486       C  0.82860180  0.04633099  0.83482356    -0.28400
C1487       C  0.82874175  0.02587754  0.81405723     0.07100
C1488       C  0.85190297  0.00824479  0.81144548    -0.27100
H1489       H  0.83300508  0.08146953  0.87801305     0.11900
H1490       H  0.86992473  0.08151476  0.91313866     0.13000
H1491       H  0.89738495  0.97613171  0.81143916     0.12100
H1492       H  0.93416217  0.97615185  0.84651962     0.11300
H1493       H  0.95234921  0.99272072  0.89071738     0.16700
H1494       H  0.91210730  0.06005411  0.93350277     0.12600
H1495       H  0.81070984  0.05986727  0.83697875     0.15500
H1496       H  0.85220502  0.99261672  0.79527882     0.15200
C1497       C  0.98031483  0.07554565  0.14765167    -0.17600
C1498       C  0.97990852  0.09571099  0.16844331    -0.19800
C1499       C  0.97124965  0.12286651  0.16249703     0.20800
C1500       C  0.96192736  0.12952341  0.13557222    -0.02700
C1501       C  0.96228628  0.10908979  0.11453479    -0.05800
C1502       C  0.97201933  0.08215714  0.12055044     0.21100
C1503       C  0.95405837  0.11592530  0.08727877     0.19300
C1504       C  0.94421953  0.14280463  0.08170321    -0.17300
C1505       C  0.94393056  0.16307483  0.10253308    -0.19500
C1506       C  0.95343878  0.15685900  0.12936027     0.20800
C1507       C  0.95581549  0.17768138  0.14969578    -0.32500
C1508       C  0.96637883  0.17142062  0.17623614     0.01500
C1509       C  0.97302143  0.14370720  0.18268092    -0.23800
C1510       C  0.97440228  0.06259206  0.09919590    -0.28400
C1511       C  0.96775950  0.06955043  0.07158667     0.07100
C1512       C  0.95688927  0.09613922  0.06594210    -0.27100
H1513       H  0.98777152  0.05491913  0.15262978     0.11900
H1514       H  0.98707225  0.09023765  0.18902290     0.13000
H1515       H  0.93747379  0.14838781  0.06102030     0.12100
H1516       H  0.93698724  0.18384636  0.09743813     0.11300
H1517       H  0.95035325  0.19889249  0.14457752     0.16700
H1518       H  0.98117210  0.13856847  0.20299396     0.12600
H1519       H  0.98274837  0.04224750  0.10397132     0.15500
H1520       H  0.95145929  0.10171715  0.04486762     0.15200
loop_ 
_geom_bond_atom_site_label_1 
_geom_bond_atom_site_label_2 
_geom_bond_distance 
_geom_bond_site_symmetry_2 
_ccdc_geom_bond_type 
O1           C17   1.272   1_565  A
O1           Zn7   1.990       .  S
C2           O18   1.272       .  A
C2           O15   1.276       .  A
C2         C1436   1.473       .  S
O3           C16   1.276       .  A
O3          Cd10   2.093       .  S
O4           C22   1.278       .  A
O4          Cd13   2.087   1_554  S
O5           C19   1.279       .  A
O5           Cd9   2.086   1_455  S
O6           C17   1.279       .  A
O6           Cd9   2.108       .  S
Zn7          O18   2.010   1_655  S
Zn7          O20   1.995       .  S
Zn7          O12   1.914   1_655  S
O8           C19   1.276       .  A
O8          Cd13   2.066   1_545  S
Cd9          O11   2.107   1_556  S
Cd9          O12   2.021   1_645  S
Cd10         O14   2.070   1_565  S
Cd10         O23   2.068   1_655  S
Cd10         O12   2.002   1_654  S
O11          C21   1.280       .  A
O12         Cd13   2.009       .  S
Cd13         O15   2.097       .  S
O14          C21   1.276       .  A
C16          O20   1.273   1_554  A
C16        C1388   1.477       .  S
C17        C1484   1.481       .  S
C19        C1415   1.484       .  S
C21        C1511   1.493       .  S
C22          O23   1.277       .  A
C22        C1460   1.487       .  S
O24          C40   1.270   1_655  A
O24         Zn30   1.989       .  S
C25          O41   1.268       .  A
C25          O38   1.276       .  A
C25        C1292   1.466       .  S
O26          C39   1.277       .  A
O26         Cd33   2.104       .  S
O27          C45   1.278       .  A
O27         Cd36   2.092       .  S
O28          C42   1.277       .  A
O28         Cd32   2.081       .  S
O29          C40   1.276       .  A
O29         Cd32   2.096       .  S
Zn30         O41   1.982       .  S
Zn30         O43   1.981       .  S
Zn30         O35   1.914       .  S
O31          C42   1.278       .  A
O31         Cd36   2.075   1_455  S
Cd32         O34   2.062       .  S
Cd32         O35   2.012   1_455  S
Cd33         O37   2.080   1_655  S
Cd33         O46   2.080       .  S
Cd33         O35   2.014       .  S
O34          C44   1.275       .  A
O35         Cd36   2.012       .  S
Cd36         O38   2.098       .  S
O37          C44   1.278       .  A
C39          O43   1.271       .  A
C39        C1367   1.480       .  S
C40        C1343   1.470       .  S
C42        C1319   1.487       .  S
C44        C1271   1.483       .  S
C45          O46   1.277       .  A
C45        C1508   1.489       .  S
O47          C63   1.270       .  A
O47         Zn53   1.994       .  S
C48          O64   1.271       .  A
C48          O61   1.276       .  A
C48        C1172   1.470       .  S
O49          C62   1.277       .  A
O49         Cd56   2.107       .  S
O50          C68   1.277       .  A
O50         Cd59   2.075       .  S
O51          C65   1.277       .  A
O51         Cd55   2.078       .  S
O52          C63   1.275       .  A
O52         Cd55   2.087       .  S
Zn53         O64   1.995       .  S
Zn53         O66   1.976       .  S
Zn53         O58   1.912       .  S
O54          C65   1.277       .  A
O54         Cd59   2.075       .  S
Cd55         O57   2.067       .  S
Cd55         O58   2.005       .  S
Cd56         O60   2.080       .  S
Cd56         O69   2.082       .  S
Cd56         O58   2.017       .  S
O57          C67   1.276       .  A
O58         Cd59   2.003       .  S
Cd59         O61   2.093       .  S
O60          C67   1.277       .  A
C62          O66   1.270       .  A
C62        C1364   1.480       .  S
C63        C1196   1.465       .  S
C65        C1220   1.486       .  S
C67        C1151   1.485       .  S
C68          O69   1.278       .  A
C68        C1247   1.487       .  S
O70          C86   1.272   1_565  A
O70         Zn76   1.990       .  S
C71          O87   1.273       .  A
C71          O84   1.278       .  A
C71        C1127   1.485       .  S
O72          C85   1.273       .  A
O72         Cd79   2.073       .  S
O73          C91   1.279       .  A
O73         Cd82   2.081       .  S
O74          C88   1.278       .  A
O74         Cd78   2.071       .  S
O75          C86   1.278       .  A
O75         Cd78   2.104       .  S
Zn76         O87   2.008       .  S
Zn76         O89   1.998       .  S
Zn76         O81   1.908       .  S
O77          C88   1.279       .  A
O77         Cd82   2.083   1_545  S
Cd78         O80   2.089       .  S
Cd78         O81   2.009   1_545  S
Cd79         O83   2.064   1_565  S
Cd79         O92   2.065       .  S
Cd79         O81   2.002       .  S
O80          C90   1.277       .  A
O81         Cd82   2.008       .  S
Cd82         O84   2.114       .  S
O83          C90   1.274       .  A
C85          O89   1.273       .  A
C85        C1055   1.465       .  S
C86        C1487   1.479       .  S
C88        C1079   1.487       .  S
C90        C1244   1.488       .  S
C91          O92   1.275       .  A
C91        C1103   1.484       .  S
O93         C109   1.272       .  A
O93         Zn99   1.990       .  S
C94         O110   1.273   1_545  A
C94         O107   1.276       .  A
C94         C956   1.475       .  S
O95         C108   1.275       .  A
O95        Cd102   2.099       .  S
O96         C114   1.277       .  A
O96        Cd105   2.079       .  S
O97         C111   1.277       .  A
O97        Cd101   2.076   1_545  S
O98         C109   1.277       .  A
O98        Cd101   2.097       .  S
Zn99        O110   1.997       .  S
Zn99        O112   1.994       .  S
Zn99        O104   1.920       .  S
O100        C111   1.277       .  A
O100       Cd105   2.085       .  S
Cd101       O103   2.088       .  S
Cd101       O104   2.014       .  S
Cd102       O106   2.071       .  S
Cd102       O115   2.061   1_565  S
Cd102       O104   2.008       .  S
O103        C113   1.278       .  A
O104       Cd105   2.018   1_565  S
Cd105       O107   2.095       .  S
O106        C113   1.276       .  A
C108        O112   1.269       .  A
C108       C1004   1.471       .  S
C109       C1028   1.471       .  S
C111        C983   1.488       .  S
C113       C1463   1.489       .  S
C114        O115   1.275       .  A
C114       C1268   1.483       .  S
O116        C132   1.270       .  A
O116       Zn122   1.978       .  S
C117        O133   1.271   1_655  A
C117        O130   1.279       .  A
C117        C935   1.485       .  S
O118        C131   1.277       .  A
O118       Cd125   2.109       .  S
O119        C137   1.280       .  A
O119       Cd128   2.096       .  S
O120        C134   1.276       .  A
O120       Cd124   2.073   1_655  S
O121        C132   1.277       .  A
O121       Cd124   2.103       .  S
Zn122       O133   1.984       .  S
Zn122       O135   1.978       .  S
Zn122       O127   1.899       .  S
O123        C134   1.280       .  A
O123       Cd128   2.090       .  S
Cd124       O126   2.070       .  S
Cd124       O127   2.011       .  S
Cd125       O129   2.080       .  S
Cd125       O138   2.066   1_455  S
Cd125       O127   2.017       .  S
O126        C136   1.277       .  A
O127       Cd128   2.017   1_455  S
Cd128       O130   2.123       .  S
O129        C136   1.276       .  A
C131        O135   1.270       .  A
C131        C860   1.480       .  S
C132        C908   1.477       .  S
C134        C887   1.489       .  S
C136       C1340   1.482       .  S
C137        O138   1.277       .  A
C137       C1175   1.484       .  S
O139        C155   1.269       .  A
O139       Zn145   1.998       .  S
C140        O156   1.273       .  A
C140        O153   1.275       .  A
C140        C812   1.467       .  S
O141        C154   1.278       .  A
O141       Cd148   2.109       .  S
O142        C160   1.274       .  A
O142       Cd151   2.062       .  S
O143        C157   1.276       .  A
O143       Cd147   2.074       .  S
O144        C155   1.274       .  A
O144       Cd147   2.097       .  S
Zn145       O156   1.995       .  S
Zn145       O158   1.988       .  S
Zn145       O150   1.916       .  S
O146        C157   1.276       .  A
O146       Cd151   2.074       .  S
Cd147       O149   2.062       .  S
Cd147       O150   2.010       .  S
Cd148       O152   2.080       .  S
Cd148       O161   2.102       .  S
Cd148       O150   2.021       .  S
O149        C159   1.276       .  A
O150       Cd151   2.005       .  S
Cd151       O153   2.080       .  S
O152        C159   1.278       .  A
C154        O158   1.272       .  A
C154        C764   1.479       .  S
C155        C839   1.472       .  S
C157        C791   1.486       .  S
C159       C1223   1.483       .  S
C160        O161   1.280       .  A
C160       C1076   1.489       .  S
O162        C178   1.274       .  A
O162       Zn168   2.024       .  S
C163        O179   1.272       .  A
C163        O176   1.278       .  A
C163       C1124   1.481       .  S
O164        C177   1.277       .  A
O164       Cd171   2.102       .  S
O165        C183   1.279       .  A
O165       Cd174   2.083   1_554  S
O166        C180   1.276       .  A
O166       Cd170   2.071       .  S
O167        C178   1.275       .  A
O167       Cd170   2.087       .  S
Zn168       O179   1.998       .  S
Zn168       O181   1.987   1_556  S
Zn168       O173   1.921   1_556  S
O169        C180   1.278       .  A
O169       Cd174   2.083       .  S
Cd170       O172   2.063   1_556  S
Cd170       O173   2.002   1_556  S
Cd171       O175   2.088       .  S
Cd171       O184   2.082       .  S
Cd171       O173   2.028       .  S
O172        C182   1.275       .  A
O173       Cd174   2.019   1_554  S
Cd174       O176   2.114       .  S
O175        C182   1.277       .  A
C177        O181   1.272       .  A
C177       C1391   1.478       .  S
C178        C740   1.473       .  S
C180        C668   1.487       .  S
C182        C716   1.486       .  S
C183        O184   1.277       .  A
C183        C692   1.489       .  S
O185        C201   1.270       .  A
O185       Zn191   1.983       .  S
C186        O202   1.270       .  A
C186        O199   1.275       .  A
C186        C620   1.473       .  S
O187        C200   1.276       .  A
O187       Cd194   2.092       .  S
O188        C206   1.277       .  A
O188       Cd197   2.068   1_554  S
O189        C203   1.278       .  A
O189       Cd193   2.085       .  S
O190        C201   1.277       .  A
O190       Cd193   2.096       .  S
Zn191       O202   1.996       .  S
Zn191       O204   1.979       .  S
Zn191       O196   1.908       .  S
O192        C203   1.275       .  A
O192       Cd197   2.056       .  S
Cd193       O195   2.084   1_556  S
Cd193       O196   2.014       .  S
Cd194       O198   2.074       .  S
Cd194       O207   2.078       .  S
Cd194       O196   2.012   1_554  S
O195        C205   1.278       .  A
O196       Cd197   1.996       .  S
Cd197       O199   2.097       .  S
O198        C205   1.276       .  A
C200        O204   1.271   1_554  A
C200        C644   1.473       .  S
C201        C815   1.470       .  S
C203       C1412   1.483       .  S
C205        C980   1.487       .  S
C206        O207   1.277       .  A
C206       C1316   1.485       .  S
O208        C224   1.273       .  A
O208       Zn214   2.015       .  S
C209        O225   1.275       .  A
C209        O222   1.277       .  A
C209        C719   1.471       .  S
O210        C223   1.274       .  A
O210       Cd217   2.084       .  S
O211        C229   1.278       .  A
O211       Cd220   2.090       .  S
O212        C226   1.277       .  A
O212       Cd216   2.071       .  S
O213        C224   1.276       .  A
O213       Cd216   2.095       .  S
Zn214       O225   2.019       .  S
Zn214       O227   2.002       .  S
Zn214       O219   1.934       .  S
O215        C226   1.276       .  A
O215       Cd220   2.078       .  S
Cd216       O218   2.074       .  S
Cd216       O219   2.006       .  S
Cd217       O221   2.073       .  S
Cd217       O230   2.066       .  S
Cd217       O219   2.010       .  S
O218        C228   1.276       .  A
O219       Cd220   2.016       .  S
Cd220       O222   2.089       .  S
O221        C228   1.276       .  A
C223        O227   1.271       .  A
C223        C575   1.467       .  S
C224        C596   1.474       .  S
C226        C884   1.487       .  S
C228       C1199   1.485       .  S
C229        O230   1.275       .  A
C229       C1295   1.488       .  S
O231        C247   1.270       .  A
O231       Zn237   1.988       .  S
C232        O248   1.270       .  A
C232        O245   1.276       .  A
C232        C959   1.476       .  S
O233        C246   1.277       .  A
O233       Cd240   2.097       .  S
O234        C252   1.276       .  A
O234       Cd243   2.066       .  S
O235        C249   1.277       .  A
O235       Cd239   2.077   1_545  S
O236        C247   1.275       .  A
O236       Cd239   2.088       .  S
Zn237       O248   1.986   1_565  S
Zn237       O250   1.989       .  S
Zn237       O242   1.914   1_565  S
O238        C249   1.277       .  A
O238       Cd243   2.080       .  S
Cd239       O241   2.066       .  S
Cd239       O242   2.007   1_565  S
Cd240       O244   2.082       .  S
Cd240       O253   2.075   1_565  S
Cd240       O242   2.017   1_565  S
O241        C251   1.276       .  A
O242       Cd243   2.012       .  S
Cd243       O245   2.103       .  S
O244        C251   1.276       .  A
C246        O250   1.272       .  A
C246        C527   1.477       .  S
C247        C548   1.465       .  S
C249        C788   1.488       .  S
C251       C1100   1.485       .  S
C252        O253   1.277       .  A
C252       C1148   1.484       .  S
O254        C270   1.270       .  A
O254       Zn260   1.985   1_655  S
C255        O271   1.271       .  A
C255        O268   1.274       .  A
C255        C476   1.473       .  S
O256        C269   1.277       .  A
O256       Cd263   2.098       .  S
O257        C275   1.278       .  A
O257       Cd266   2.080       .  S
O258        C272   1.277       .  A
O258       Cd262   2.061       .  S
O259        C270   1.278       .  A
O259       Cd262   2.116       .  S
Zn260       O271   1.985       .  S
Zn260       O273   1.987       .  S
Zn260       O265   1.905   1_455  S
O261        C272   1.276       .  A
O261       Cd266   2.078   1_655  S
Cd262       O264   2.097       .  S
Cd262       O265   2.011       .  S
Cd263       O267   2.075   1_455  S
Cd263       O276   2.084       .  S
Cd263       O265   2.007   1_455  S
O264        C274   1.279       .  A
O265       Cd266   2.018   1_655  S
Cd266       O268   2.089       .  S
O267        C274   1.277       .  A
C269        O273   1.272       .  A
C269        C503   1.475       .  S
C270        C932   1.482       .  S
C272       C1052   1.476       .  S
C274        C743   1.492       .  S
C275        O276   1.278       .  A
C275       C1439   1.489       .  S
O277        C293   1.270       .  A
O277       Zn283   1.987       .  S
C278        O294   1.269       .  A
C278        O291   1.277       .  A
C278        C452   1.471       .  S
O279        C292   1.277       .  A
O279       Cd286   2.102       .  S
O280        C298   1.278       .  A
O280       Cd289   2.082       .  S
O281        C295   1.278       .  A
O281       Cd285   2.081       .  S
O282        C293   1.276       .  A
O282       Cd285   2.098       .  S
Zn283       O294   1.982       .  S
Zn283       O296   1.963       .  S
Zn283       O288   1.899       .  S
O284        C295   1.277       .  A
O284       Cd289   2.070       .  S
Cd285       O287   2.073       .  S
Cd285       O288   2.006       .  S
Cd286       O290   2.081       .  S
Cd286       O299   2.087       .  S
Cd286       O288   2.014       .  S
O287        C297   1.277       .  A
O288       Cd289   2.002       .  S
Cd289       O291   2.103       .  S
O290        C297   1.277       .  A
C292        O296   1.269       .  A
C292        C524   1.476       .  S
C293       C1031   1.475       .  S
C295        C428   1.485       .  S
C297        C695   1.487       .  S
C298        O299   1.279       .  A
C298        C599   1.489       .  S
O300        C316   1.270       .  A
O300       Zn306   1.978       .  S
C301        O317   1.271       .  A
C301        O314   1.277       .  A
C301        C911   1.478       .  S
O302        C315   1.276       .  A
O302       Cd309   2.095       .  S
O303        C321   1.277       .  A
O303       Cd312   2.079       .  S
O304        C318   1.276       .  A
O304       Cd308   2.072       .  S
O305        C316   1.275       .  A
O305       Cd308   2.095       .  S
Zn306       O317   1.989       .  S
Zn306       O319   2.001       .  S
Zn306       O311   1.908       .  S
O307        C318   1.278       .  A
O307       Cd312   2.081       .  S
Cd308       O310   2.073       .  S
Cd308       O311   2.018       .  S
Cd309       O313   2.074       .  S
Cd309       O322   2.063       .  S
Cd309       O311   2.008       .  S
O310        C320   1.277       .  A
O311       Cd312   2.015       .  S
Cd312       O314   2.106       .  S
O313        C320   1.276       .  A
C315        O319   1.274       .  A
C315        C404   1.480       .  S
C316        C479   1.471       .  S
C318       C1007   1.486       .  S
C320        C551   1.484       .  S
C321        O322   1.275       .  A
C321        C455   1.480       .  S
O323        C339   1.272       .  A
O323       Zn329   1.988       .  S
C324        O340   1.270       .  A
C324        O337   1.276       .  A
C324        C500   1.474       .  S
O325        C338   1.277       .  A
O325       Cd332   2.120       .  S
O326        C344   1.276       .  A
O326       Cd335   2.077       .  S
O327        C341   1.279       .  A
O327       Cd331   2.098       .  S
O328        C339   1.278       .  A
O328       Cd331   2.113       .  S
Zn329       O340   1.981       .  S
Zn329       O342   1.968       .  S
Zn329       O334   1.904       .  S
O330        C341   1.275       .  A
O330       Cd335   2.054       .  S
Cd331       O333   2.087       .  S
Cd331       O334   2.026       .  S
Cd332       O336   2.072       .  S
Cd332       O345   2.094       .  S
Cd332       O334   2.023       .  S
O333        C343   1.279       .  A
O334       Cd335   2.008       .  S
Cd335       O337   2.103       .  S
O336        C343   1.278       .  A
C338        O342   1.268       .  A
C338        C407   1.481       .  S
C339        C863   1.484       .  S
C341        C623   1.483       .  S
C343        C836   1.486       .  S
C344        O345   1.279       .  A
C344        C380   1.489       .  S
O346        C362   1.273       .  A
O346       Zn352   1.998       .  S
C347        O363   1.272       .  A
C347        O360   1.276       .  A
C347        C647   1.476       .  S
O348        C361   1.276       .  A
O348       Cd355   2.096       .  S
O349        C367   1.278       .  A
O349       Cd358   2.081       .  S
O350        C364   1.278       .  A
O350       Cd354   2.087   1_554  S
O351        C362   1.278       .  A
O351       Cd354   2.104       .  S
Zn352       O363   1.984   1_556  S
Zn352       O365   2.003       .  S
Zn352       O357   1.910   1_556  S
O353        C364   1.276       .  A
O353       Cd358   2.069       .  S
Cd354       O356   2.088       .  S
Cd354       O357   2.016   1_556  S
Cd355       O359   2.064       .  S
Cd355       O368   2.073   1_556  S
Cd355       O357   2.000   1_556  S
O356        C366   1.278       .  A
O357       Cd358   2.009       .  S
Cd358       O360   2.097       .  S
O359        C366   1.276       .  A
C361        O365   1.271       .  A
C361        C383   1.473       .  S
C362        C767   1.480       .  S
C364        C572   1.486       .  S
C366        C671   1.486       .  S
C367        O368   1.276       .  A
C367        C431   1.487       .  S
C369        C370   1.401       .  A
C369        C374   1.404       .  A
C369        H385   1.083       .  S
C370        C371   1.404       .  A
C370        H386   1.084       .  S
C371        C381   1.407       .  A
C371        C372   1.412       .  A
C372        C378   1.411       .  A
C372        C373   1.415       .  A
C373        C375   1.412       .  A
C373        C374   1.413       .  A
C374        C382   1.407       .  A
C375        C384   1.404       .  A
C375        C376   1.403       .  A
C376        C377   1.400       .  A
C376        H387   1.085       .  S
C377        C378   1.405       .  A
C377        H388   1.082       .  S
C378        C379   1.405       .  A
C379        C380   1.410       .  A
C379        H389   1.083       .  S
C380        C381   1.408       .  A
C381        H390   1.084       .  S
C382        C383   1.404       .  A
C382        H391   1.084       .  S
C383        C384   1.405       .  A
C384        H392   1.085       .  S
C393        C394   1.406       .  A
C393        C398   1.406       .  A
C393        H409   1.083       .  S
C394        C395   1.407       .  A
C394        H410   1.083       .  S
C395        C405   1.413       .  A
C395        C396   1.412       .  A
C396        C402   1.411       .  A
C396        C397   1.413       .  A
C397        C399   1.409       .  A
C397        C398   1.414       .  A
C398        C406   1.416       .  A
C399        C408   1.393       .  A
C399        C400   1.402       .  A
C400        C401   1.393       .  A
C400        H411   1.084       .  S
C401        C402   1.401       .  A
C401        H412   1.084       .  S
C402        C403   1.395       .  A
C403        C404   1.403       .  A
C403        H413   1.085       .  S
C404        C405   1.410       .  A
C405        H414   1.084       .  S
C406        C407   1.409       .  A
C406        H415   1.084       .  S
C407        C408   1.405       .  A
C408        H416   1.085       .  S
C417        C418   1.398       .  A
C417        C422   1.403       .  A
C417        H433   1.084       .  S
C418        C419   1.403       .  A
C418        H434   1.083       .  S
C419        C429   1.402       .  A
C419        C420   1.410       .  A
C420        C426   1.412       .  A
C420        C421   1.413       .  A
C421        C423   1.410       .  A
C421        C422   1.412       .  A
C422        C430   1.404       .  A
C423        C432   1.404       .  A
C423        C424   1.404       .  A
C424        C425   1.400       .  A
C424        H435   1.083       .  S
C425        C426   1.404       .  A
C425        H436   1.084       .  S
C426        C427   1.405       .  A
C427        C428   1.409       .  A
C427        H437   1.084       .  S
C428        C429   1.409       .  A
C429        H438   1.084       .  S
C430        C431   1.408       .  A
C430        H439   1.084       .  S
C431        C432   1.410       .  A
C432        H440   1.084       .  S
C441        C442   1.397       .  A
C441        C446   1.403       .  A
C441        H457   1.085       .  S
C442        C443   1.403       .  A
C442        H458   1.083       .  S
C443        C453   1.400       .  A
C443        C444   1.411       .  A
C444        C450   1.413       .  A
C444        C445   1.412       .  A
C445        C447   1.412       .  A
C445        C446   1.411       .  A
C446        C454   1.400       .  A
C447        C456   1.406       .  A
C447        C448   1.404       .  A
C448        C449   1.401       .  A
C448        H459   1.082       .  S
C449        C450   1.404       .  A
C449        H460   1.084       .  S
C450        C451   1.407       .  A
C451        C452   1.404       .  A
C451        H461   1.084       .  S
C452        C453   1.404       .  A
C453        H462   1.084       .  S
C454        C455   1.407       .  A
C454        H463   1.085       .  S
C455        C456   1.408       .  A
C456        H464   1.083       .  S
C465        C466   1.403       .  A
C465        C470   1.405       .  A
C465        H481   1.083       .  S
C466        C467   1.405       .  A
C466        H482   1.083       .  S
C467        C477   1.409       .  A
C467        C468   1.413       .  A
C468        C474   1.411       .  A
C468        C469   1.411       .  A
C469        C471   1.411       .  A
C469        C470   1.414       .  A
C470        C478   1.409       .  A
C471        C480   1.395       .  A
C471        C472   1.402       .  A
C472        C473   1.394       .  A
C472        H483   1.084       .  S
C473        C474   1.402       .  A
C473        H484   1.083       .  S
C474        C475   1.395       .  A
C475        C476   1.403       .  A
C475        H485   1.085       .  S
C476        C477   1.406       .  A
C477        H486   1.084       .  S
C478        C479   1.405       .  A
C478        H487   1.084       .  S
C479        C480   1.404       .  A
C480        H488   1.086       .  S
C489        C490   1.404       .  A
C489        C494   1.405       .  A
C489        H505   1.083       .  S
C490        C491   1.405       .  A
C490        H506   1.083       .  S
C491        C501   1.412       .  A
C491        C492   1.414       .  A
C492        C498   1.410       .  A
C492        C493   1.412       .  A
C493        C495   1.411       .  A
C493        C494   1.413       .  A
C494        C502   1.410       .  A
C495        C504   1.396       .  A
C495        C496   1.401       .  A
C496        C497   1.394       .  A
C496        H507   1.085       .  S
C497        C498   1.402       .  A
C497        H508   1.083       .  S
C498        C499   1.395       .  A
C499        C500   1.403       .  A
C499        H509   1.085       .  S
C500        C501   1.407       .  A
C501        H510   1.084       .  S
C502        C503   1.407       .  A
C502        H511   1.084       .  S
C503        C504   1.403       .  A
C504        H512   1.086       .  S
C513        C514   1.394       .  A
C513        C518   1.402       .  A
C513        H529   1.084       .  S
C514        C515   1.402       .  A
C514        H530   1.084       .  S
C515        C525   1.394       .  A
C515        C516   1.410       .  A
C516        C522   1.414       .  A
C516        C517   1.411       .  A
C517        C519   1.413       .  A
C517        C518   1.411       .  A
C518        C526   1.395       .  A
C519        C528   1.410       .  A
C519        C520   1.405       .  A
C520        C521   1.403       .  A
C520        H531   1.083       .  S
C521        C522   1.405       .  A
C521        H532   1.083       .  S
C522        C523   1.410       .  A
C523        C524   1.406       .  A
C523        H533   1.084       .  S
C524        C525   1.406       .  A
C525        H534   1.085       .  S
C526        C527   1.404       .  A
C526        H535   1.085       .  S
C527        C528   1.407       .  A
C528        H536   1.084       .  S
C537        C538   1.401       .  A
C537        C542   1.404       .  A
C537        H553   1.084       .  S
C538        C539   1.404       .  A
C538        H554   1.082       .  S
C539        C549   1.407       .  A
C539        C540   1.414       .  A
C540        C546   1.411       .  A
C540        C541   1.412       .  A
C541        C543   1.412       .  A
C541        C542   1.411       .  A
C542        C550   1.405       .  A
C543        C552   1.402       .  A
C543        C544   1.403       .  A
C544        C545   1.397       .  A
C544        H555   1.082       .  S
C545        C546   1.402       .  A
C545        H556   1.084       .  S
C546        C547   1.399       .  A
C547        C548   1.402       .  A
C547        H557   1.085       .  S
C548        C549   1.403       .  A
C549        H558   1.083       .  S
C550        C551   1.409       .  A
C550        H559   1.084       .  S
C551        C552   1.408       .  A
C552        H560   1.083       .  S
C561        C562   1.398       .  A
C561        C566   1.402       .  A
C561        H577   1.085       .  S
C562        C563   1.404       .  A
C562        H578   1.082       .  S
C563        C573   1.402       .  A
C563        C564   1.411       .  A
C564        C570   1.412       .  A
C564        C565   1.412       .  A
C565        C567   1.413       .  A
C565        C566   1.412       .  A
C566        C574   1.401       .  A
C567        C576   1.406       .  A
C567        C568   1.404       .  A
C568        C569   1.401       .  A
C568        H579   1.083       .  S
C569        C570   1.404       .  A
C569        H580   1.084       .  S
C570        C571   1.406       .  A
C571        C572   1.409       .  A
C571        H581   1.084       .  S
C572        C573   1.409       .  A
C573        H582   1.083       .  S
C574        C575   1.402       .  A
C574        H583   1.085       .  S
C575        C576   1.403       .  A
C576        H584   1.084       .  S
C585        C586   1.400       .  A
C585        C590   1.404       .  A
C585        H601   1.082       .  S
C586        C587   1.404       .  A
C586        H602   1.084       .  S
C587        C597   1.405       .  A
C587        C588   1.412       .  A
C588        C594   1.413       .  A
C588        C589   1.415       .  A
C589        C591   1.411       .  A
C589        C590   1.411       .  A
C590        C598   1.405       .  A
C591        C600   1.406       .  A
C591        C592   1.404       .  A
C592        C593   1.400       .  A
C592        H603   1.084       .  S
C593        C594   1.404       .  A
C593        H604   1.082       .  S
C594        C595   1.407       .  A
C595        C596   1.404       .  A
C595        H605   1.083       .  S
C596        C597   1.405       .  A
C597        H606   1.085       .  S
C598        C599   1.410       .  A
C598        H607   1.083       .  S
C599        C600   1.409       .  A
C600        H608   1.084       .  S
C609        C610   1.396       .  A
C609        C614   1.403       .  A
C609        H625   1.084       .  S
C610        C611   1.402       .  A
C610        H626   1.084       .  S
C611        C621   1.400       .  A
C611        C612   1.412       .  A
C612        C618   1.412       .  A
C612        C613   1.413       .  A
C613        C615   1.413       .  A
C613        C614   1.410       .  A
C614        C622   1.398       .  A
C615        C624   1.410       .  A
C615        C616   1.405       .  A
C616        C617   1.403       .  A
C616        H627   1.084       .  S
C617        C618   1.405       .  A
C617        H628   1.083       .  S
C618        C619   1.409       .  A
C619        C620   1.406       .  A
C619        H629   1.084       .  S
C620        C621   1.403       .  A
C621        H630   1.085       .  S
C622        C623   1.408       .  A
C622        H631   1.085       .  S
C623        C624   1.408       .  A
C624        H632   1.084       .  S
C633        C634   1.394       .  A
C633        C638   1.402   1_556  A
C633        H649   1.083       .  S
C634        C635   1.401   1_556  A
C634        H650   1.085       .  S
C635        C645   1.394       .  A
C635        C636   1.411       .  A
C636        C642   1.413       .  A
C636        C637   1.411       .  A
C637        C639   1.413       .  A
C637        C638   1.410       .  A
C638        C646   1.395       .  A
C639        C648   1.410       .  A
C639        C640   1.405       .  A
C640        C641   1.403       .  A
C640        H651   1.083       .  S
C641        C642   1.405       .  A
C641        H652   1.083       .  S
C642        C643   1.409       .  A
C643        C644   1.406       .  A
C643        H653   1.084       .  S
C644        C645   1.404       .  A
C645        H654   1.086   1_554  S
C646        C647   1.405       .  A
C646        H655   1.084   1_554  S
C647        C648   1.407       .  A
C648        H656   1.084       .  S
C657        C658   1.399       .  A
C657        C662   1.403       .  A
C657        H673   1.085       .  S
C658        C659   1.404       .  A
C658        H674   1.082       .  S
C659        C669   1.404       .  A
C659        C660   1.412       .  A
C660        C666   1.410       .  A
C660        C661   1.413       .  A
C661        C663   1.412       .  A
C661        C662   1.410       .  A
C662        C670   1.402       .  A
C663        C672   1.406       .  A
C663        C664   1.404       .  A
C664        C665   1.400       .  A
C664        H675   1.082       .  S
C665        C666   1.404       .  A
C665        H676   1.085       .  S
C666        C667   1.404       .  A
C667        C668   1.410       .  A
C667        H677   1.085       .  S
C668        C669   1.408       .  A
C669        H678   1.083       .  S
C670        C671   1.409       .  A
C670        H679   1.085       .  S
C671        C672   1.409       .  A
C672        H680   1.083       .  S
C681        C682   1.401       .  A
C681        C686   1.405       .  A
C681        H697   1.082       .  S
C682        C683   1.405       .  A
C682        H698   1.085       .  S
C683        C693   1.407       .  A
C683        C684   1.411       .  A
C684        C690   1.411       .  A
C684        C685   1.414       .  A
C685        C687   1.411       .  A
C685        C686   1.411       .  A
C686        C694   1.406       .  A
C687        C696   1.402       .  A
C687        C688   1.403       .  A
C688        C689   1.398       .  A
C688        H699   1.085       .  S
C689        C690   1.403       .  A
C689        H700   1.082       .  S
C690        C691   1.403       .  A
C691        C692   1.408       .  A
C691        H701   1.083       .  S
C692        C693   1.411       .  A
C693        H702   1.085       .  S
C694        C695   1.410       .  A
C694        H703   1.083       .  S
C695        C696   1.408       .  A
C696        H704   1.085       .  S
C705        C706   1.402       .  A
C705        C710   1.405       .  A
C705        H721   1.084       .  S
C706        C707   1.405       .  A
C706        H722   1.083       .  S
C707        C717   1.408       .  A
C707        C708   1.412       .  A
C708        C714   1.410       .  A
C708        C709   1.413       .  A
C709        C711   1.412       .  A
C709        C710   1.413       .  A
C710        C718   1.408       .  A
C711        C720   1.401       .  A
C711        C712   1.402       .  A
C712        C713   1.397       .  A
C712        H723   1.083       .  S
C713        C714   1.403       .  A
C713        H724   1.084       .  S
C714        C715   1.400       .  A
C715        C716   1.408       .  A
C715        H725   1.084       .  S
C716        C717   1.409       .  A
C717        H726   1.084       .  S
C718        C719   1.405       .  A
C718        H727   1.084       .  S
C719        C720   1.402       .  A
C720        H728   1.085       .  S
C729        C730   1.400       .  A
C729        C734   1.405       .  A
C729        H745   1.083       .  S
C730        C731   1.404       .  A
C730        H746   1.084       .  S
C731        C741   1.407       .  A
C731        C732   1.413       .  A
C732        C738   1.412       .  A
C732        C733   1.415       .  A
C733        C735   1.412       .  A
C733        C734   1.410       .  A
C734        C742   1.405       .  A
C735        C744   1.407       .  A
C735        C736   1.404       .  A
C736        C737   1.400       .  A
C736        H747   1.084       .  S
C737        C738   1.404       .  A
C737        H748   1.083       .  S
C738        C739   1.405       .  A
C739        C740   1.403       .  A
C739        H749   1.084       .  S
C740        C741   1.404       .  A
C741        H750   1.085       .  S
C742        C743   1.411       .  A
C742        H751   1.083       .  S
C743        C744   1.410       .  A
C744        H752   1.084       .  S
C753        C754   1.404       .  A
C753        C758   1.405       .  A
C753        H769   1.083       .  S
C754        C755   1.405       .  A
C754        H770   1.083       .  S
C755        C765   1.413       .  A
C755        C756   1.414       .  A
C756        C762   1.410       .  A
C756        C757   1.414       .  A
C757        C759   1.412       .  A
C757        C758   1.412       .  A
C758        C766   1.410       .  A
C759        C768   1.399       .  A
C759        C760   1.402       .  A
C760        C761   1.396       .  A
C760        H771   1.084       .  S
C761        C762   1.402       .  A
C761        H772   1.084       .  S
C762        C763   1.397       .  A
C763        C764   1.405       .  A
C763        H773   1.085       .  S
C764        C765   1.407       .  A
C765        H774   1.084       .  S
C766        C767   1.408       .  A
C766        H775   1.084       .  S
C767        C768   1.405       .  A
C768        H776   1.085       .  S
C777        C778   1.400       .  A
C777        C782   1.404       .  A
C777        H793   1.084       .  S
C778        C779   1.404       .  A
C778        H794   1.084       .  S
C779        C789   1.405       .  A
C779        C780   1.411       .  A
C780        C786   1.411       .  A
C780        C781   1.413       .  A
C781        C783   1.411       .  A
C781        C782   1.411       .  A
C782        C790   1.405       .  A
C783        C792   1.403       .  A
C783        C784   1.403       .  A
C784        C785   1.399       .  A
C784        H795   1.084       .  S
C785        C786   1.403       .  A
C785        H796   1.083       .  S
C786        C787   1.403       .  A
C787        C788   1.409       .  A
C787        H797   1.084       .  S
C788        C789   1.410       .  A
C789        H798   1.084       .  S
C790        C791   1.410       .  A
C790        H799   1.084       .  S
C791        C792   1.408       .  A
C792        H800   1.084       .  S
C801        C802   1.396       .  A
C801        C806   1.403       .  A
C801        H817   1.083       .  S
C802        C803   1.402       .  A
C802        H818   1.085       .  S
C803        C813   1.396       .  A
C803        C804   1.411       .  A
C804        C810   1.413       .  A
C804        C805   1.411       .  A
C805        C807   1.413       .  A
C805        C806   1.411       .  A
C806        C814   1.398       .  A
C807        C816   1.407       .  A
C807        C808   1.404       .  A
C808        C809   1.401       .  A
C808        H819   1.083       .  S
C809        C810   1.404       .  A
C809        H820   1.083       .  S
C810        C811   1.407       .  A
C811        C812   1.404       .  A
C811        H821   1.084       .  S
C812        C813   1.402       .  A
C813        H822   1.086       .  S
C814        C815   1.404       .  A
C814        H823   1.085       .  S
C815        C816   1.404       .  A
C816        H824   1.084       .  S
C825        C826   1.397       .  A
C825        C830   1.403       .  A
C825        H841   1.083       .  S
C826        C827   1.403       .  A
C826        H842   1.084       .  S
C827        C837   1.401       .  A
C827        C828   1.411       .  A
C828        C834   1.411       .  A
C828        C829   1.414       .  A
C829        C831   1.413       .  A
C829        C830   1.412       .  A
C830        C838   1.401       .  A
C831        C840   1.409       .  A
C831        C832   1.404       .  A
C832        C833   1.402       .  A
C832        H843   1.084       .  S
C833        C834   1.405       .  A
C833        H844   1.082       .  S
C834        C835   1.408       .  A
C835        C836   1.410       .  A
C835        H845   1.083       .  S
C836        C837   1.408       .  A
C837        H846   1.084       .  S
C838        C839   1.403       .  A
C838        H847   1.084       .  S
C839        C840   1.405       .  A
C840        H848   1.085       .  S
C849        C850   1.405       .  A
C849        C854   1.406       .  A
C849        H865   1.083       .  S
C850        C851   1.406       .  A
C850        H866   1.083       .  S
C851        C861   1.413       .  A
C851        C852   1.414       .  A
C852        C858   1.410       .  A
C852        C853   1.413       .  A
C853        C855   1.410       .  A
C853        C854   1.413       .  A
C854        C862   1.413       .  A
C855        C864   1.397       .  A
C855        C856   1.402       .  A
C856        C857   1.394       .  A
C856        H867   1.083       .  S
C857        C858   1.402       .  A
C857        H868   1.085       .  S
C858        C859   1.395       .  A
C859        C860   1.405       .  A
C859        H869   1.086       .  S
C860        C861   1.408       .  A
C861        H870   1.084       .  S
C862        C863   1.409       .  A
C862        H871   1.083       .  S
C863        C864   1.406       .  A
C864        H872   1.084       .  S
C873        C874   1.397       .  A
C873        C878   1.403       .  A
C873        H889   1.082       .  S
C874        C875   1.402       .  A
C874        H890   1.085       .  S
C875        C885   1.400       .  A
C875        C876   1.411       .  A
C876        C882   1.411       .  A
C876        C877   1.414       .  A
C877        C879   1.411       .  A
C877        C878   1.411       .  A
C878        C886   1.402       .  A
C879        C888   1.407       .  A
C879        C880   1.405       .  A
C880        C881   1.402       .  A
C880        H891   1.085       .  S
C881        C882   1.405       .  A
C881        H892   1.082       .  S
C882        C883   1.408       .  A
C883        C884   1.411       .  A
C883        H893   1.083       .  S
C884        C885   1.407       .  A
C885        H894   1.085       .  S
C886        C887   1.407       .  A
C886        H895   1.083       .  S
C887        C888   1.412       .  A
C888        H896   1.085       .  S
C897        C898   1.395       .  A
C897        C902   1.402       .  A
C897        H913   1.085       .  S
C898        C899   1.402       .  A
C898        H914   1.083       .  S
C899        C909   1.396       .  A
C899        C900   1.411       .  A
C900        C906   1.413       .  A
C900        C901   1.413       .  A
C901        C903   1.414       .  A
C901        C902   1.411       .  A
C902        C910   1.396       .  A
C903        C912   1.412       .  A
C903        C904   1.406       .  A
C904        C905   1.404       .  A
C904        H915   1.083       .  S
C905        C906   1.405       .  A
C905        H916   1.083       .  S
C906        C907   1.411       .  A
C907        C908   1.407       .  A
C907        H917   1.084       .  S
C908        C909   1.405       .  A
C909        H918   1.085       .  S
C910        C911   1.405       .  A
C910        H919   1.086       .  S
C911        C912   1.407       .  A
C912        H920   1.084       .  S
C921        C922   1.395       .  A
C921        C926   1.402   1_455  A
C921        H937   1.084       .  S
C922        C923   1.402   1_455  A
C922        H938   1.084       .  S
C923        C933   1.397       .  A
C923        C924   1.410       .  A
C924        C930   1.413       .  A
C924        C925   1.415       .  A
C925        C927   1.413       .  A
C925        C926   1.411       .  A
C926        C934   1.398       .  A
C927        C936   1.415       .  A
C927        C928   1.406       .  A
C928        C929   1.406       .  A
C928        H939   1.083       .  S
C929        C930   1.406       .  A
C929        H940   1.083       .  S
C930        C931   1.415       .  A
C931        C932   1.410       .  A
C931        H941   1.084       .  S
C932        C933   1.405       .  A
C933        H942   1.085   1_655  S
C934        C935   1.406       .  A
C934        H943   1.085   1_655  S
C935        C936   1.410       .  A
C936        H944   1.084       .  S
C945        C946   1.395       .  A
C945        C950   1.402       .  A
C945        H961   1.084   1_545  S
C946        C947   1.402       .  A
C946        H962   1.083   1_545  S
C947        C957   1.398       .  A
C947        C948   1.411       .  A
C948        C954   1.413       .  A
C948        C949   1.413       .  A
C949        C951   1.414       .  A
C949        C950   1.411       .  A
C950        C958   1.397       .  A
C951        C960   1.411       .  A
C951        C952   1.405       .  A
C952        C953   1.404       .  A
C952        H963   1.083       .  S
C953        C954   1.405       .  A
C953        H964   1.083       .  S
C954        C955   1.410       .  A
C955        C956   1.406       .  A
C955        H965   1.084       .  S
C956        C957   1.404       .  A
C957        H966   1.085       .  S
C958        C959   1.404       .  A
C958        H967   1.086       .  S
C959        C960   1.407       .  A
C960        H968   1.084       .  S
C969        C970   1.399       .  A
C969        C974   1.404       .  A
C969        H985   1.083       .  S
C970        C971   1.404       .  A
C970        H986   1.083       .  S
C971        C981   1.405       .  A
C971        C972   1.412       .  A
C972        C978   1.410       .  A
C972        C973   1.414       .  A
C973        C975   1.412       .  A
C973        C974   1.410       .  A
C974        C982   1.404       .  A
C975        C984   1.406       .  A
C975        C976   1.404       .  A
C976        C977   1.400       .  A
C976        H987   1.083       .  S
C977        C978   1.404       .  A
C977        H988   1.083       .  S
C978        C979   1.404       .  A
C979        C980   1.410       .  A
C979        H989   1.084       .  S
C980        C981   1.409       .  A
C981        H990   1.084       .  S
C982        C983   1.410       .  A
C982        H991   1.084       .  S
C983        C984   1.409       .  A
C984        H992   1.084       .  S
C993        C994   1.398       .  A
C993        C998   1.403       .  A
C993       H1009   1.083       .  S
C994        C995   1.403       .  A
C994       H1010   1.084       .  S
C995       C1005   1.403       .  A
C995        C996   1.412       .  A
C996       C1002   1.413       .  A
C996        C997   1.414       .  A
C997        C999   1.411       .  A
C997        C998   1.411       .  A
C998       C1006   1.402       .  A
C999       C1008   1.406       .  A
C999       C1000   1.405       .  A
C1000      C1001   1.401       .  A
C1000      H1011   1.083       .  S
C1001      C1002   1.404       .  A
C1001      H1012   1.083       .  S
C1002      C1003   1.407       .  A
C1003      C1004   1.405       .  A
C1003      H1013   1.084       .  S
C1004      C1005   1.403       .  A
C1005      H1014   1.085       .  S
C1006      C1007   1.407       .  A
C1006      H1015   1.084       .  S
C1007      C1008   1.410       .  A
C1008      H1016   1.084       .  S
C1017      C1018   1.403       .  A
C1017      C1022   1.405       .  A
C1017      H1033   1.083       .  S
C1018      C1019   1.405       .  A
C1018      H1034   1.083       .  S
C1019      C1029   1.410       .  A
C1019      C1020   1.414       .  A
C1020      C1026   1.411       .  A
C1020      C1021   1.412       .  A
C1021      C1023   1.412       .  A
C1021      C1022   1.413       .  A
C1022      C1030   1.409       .  A
C1023      C1032   1.398       .  A
C1023      C1024   1.402       .  A
C1024      C1025   1.395       .  A
C1024      H1035   1.084       .  S
C1025      C1026   1.402       .  A
C1025      H1036   1.083       .  S
C1026      C1027   1.396       .  A
C1027      C1028   1.403       .  A
C1027      H1037   1.085       .  S
C1028      C1029   1.405       .  A
C1029      H1038   1.084       .  S
C1030      C1031   1.407       .  A
C1030      H1039   1.084       .  S
C1031      C1032   1.404       .  A
C1032      H1040   1.085       .  S
C1041      C1042   1.394       .  A
C1041      C1046   1.401       .  A
C1041      H1057   1.083       .  S
C1042      C1043   1.402       .  A
C1042      H1058   1.084       .  S
C1043      C1053   1.394       .  A
C1043      C1044   1.410       .  A
C1044      C1050   1.412       .  A
C1044      C1045   1.410       .  A
C1045      C1047   1.412       .  A
C1045      C1046   1.412       .  A
C1046      C1054   1.396       .  A
C1047      C1056   1.406       .  A
C1047      C1048   1.404       .  A
C1048      C1049   1.402       .  A
C1048      H1059   1.084       .  S
C1049      C1050   1.405       .  A
C1049      H1060   1.082       .  S
C1050      C1051   1.408       .  A
C1051      C1052   1.409       .  A
C1051      H1061   1.083       .  S
C1052      C1053   1.404       .  A
C1053      H1062   1.085       .  S
C1054      C1055   1.400       .  A
C1054      H1063   1.084       .  S
C1055      C1056   1.405       .  A
C1056      H1064   1.085       .  S
C1065      C1066   1.399       .  A
C1065      C1070   1.404       .  A
C1065      H1081   1.082       .  S
C1066      C1067   1.404       .  A
C1066      H1082   1.085       .  S
C1067      C1077   1.403       .  A
C1067      C1068   1.410       .  A
C1068      C1074   1.413       .  A
C1068      C1069   1.414       .  A
C1069      C1071   1.410       .  A
C1069      C1070   1.412       .  A
C1070      C1078   1.405       .  A
C1071      C1080   1.403       .  A
C1071      C1072   1.404       .  A
C1072      C1073   1.400       .  A
C1072      H1083   1.085       .  S
C1073      C1074   1.404       .  A
C1073      H1084   1.082       .  S
C1074      C1075   1.407       .  A
C1075      C1076   1.408       .  A
C1075      H1085   1.083       .  S
C1076      C1077   1.411       .  A
C1077      H1086   1.085       .  S
C1078      C1079   1.409       .  A
C1078      H1087   1.083       .  S
C1079      C1080   1.409       .  A
C1080      H1088   1.085       .  S
C1089      C1090   1.397       .  A
C1089      C1094   1.402       .  A
C1089      H1105   1.082       .  S
C1090      C1091   1.402       .  A
C1090      H1106   1.085       .  S
C1091      C1101   1.400       .  A
C1091      C1092   1.411       .  A
C1092      C1098   1.412       .  A
C1092      C1093   1.412       .  A
C1093      C1095   1.411       .  A
C1093      C1094   1.411       .  A
C1094      C1102   1.401       .  A
C1095      C1104   1.405       .  A
C1095      C1096   1.405       .  A
C1096      C1097   1.401       .  A
C1096      H1107   1.085       .  S
C1097      C1098   1.405       .  A
C1097      H1108   1.082       .  S
C1098      C1099   1.407       .  A
C1099      C1100   1.410       .  A
C1099      H1109   1.083       .  S
C1100      C1101   1.407       .  A
C1101      H1110   1.085       .  S
C1102      C1103   1.406       .  A
C1102      H1111   1.083       .  S
C1103      C1104   1.411       .  A
C1104      H1112   1.085       .  S
C1113      C1114   1.406       .  A
C1113      C1118   1.406       .  A
C1113      H1129   1.083       .  S
C1114      C1115   1.406       .  A
C1114      H1130   1.083       .  S
C1115      C1125   1.416       .  A
C1115      C1116   1.414       .  A
C1116      C1122   1.410       .  A
C1116      C1117   1.416       .  A
C1117      C1119   1.411       .  A
C1117      C1118   1.413       .  A
C1118      C1126   1.415       .  A
C1119      C1128   1.400       .  A
C1119      C1120   1.402       .  A
C1120      C1121   1.396       .  A
C1120      H1131   1.084       .  S
C1121      C1122   1.402       .  A
C1121      H1132   1.084       .  S
C1122      C1123   1.398       .  A
C1123      C1124   1.404       .  A
C1123      H1133   1.085       .  S
C1124      C1125   1.409       .  A
C1125      H1134   1.084       .  S
C1126      C1127   1.410       .  A
C1126      H1135   1.084       .  S
C1127      C1128   1.405       .  A
C1128      H1136   1.085       .  S
C1137      C1138   1.398       .  A
C1137      C1142   1.403       .  A
C1137      H1153   1.082       .  S
C1138      C1139   1.403       .  A
C1138      H1154   1.085       .  S
C1139      C1149   1.401       .  A
C1139      C1140   1.411       .  A
C1140      C1146   1.411       .  A
C1140      C1141   1.412       .  A
C1141      C1143   1.412       .  A
C1141      C1142   1.410       .  A
C1142      C1150   1.401       .  A
C1143      C1152   1.405       .  A
C1143      C1144   1.404       .  A
C1144      C1145   1.400       .  A
C1144      H1155   1.085       .  S
C1145      C1146   1.404       .  A
C1145      H1156   1.082       .  S
C1146      C1147   1.404       .  A
C1147      C1148   1.409       .  A
C1147      H1157   1.083       .  S
C1148      C1149   1.408       .  A
C1149      H1158   1.085       .  S
C1150      C1151   1.408       .  A
C1150      H1159   1.083       .  S
C1151      C1152   1.409       .  A
C1152      H1160   1.085       .  S
C1161      C1162   1.398       .  A
C1161      C1166   1.404       .  A
C1161      H1177   1.083       .  S
C1162      C1163   1.403       .  A
C1162      H1178   1.084       .  S
C1163      C1173   1.401       .  A
C1163      C1164   1.412       .  A
C1164      C1170   1.412       .  A
C1164      C1165   1.413       .  A
C1165      C1167   1.413       .  A
C1165      C1166   1.410       .  A
C1166      C1174   1.401       .  A
C1167      C1176   1.408       .  A
C1167      C1168   1.404       .  A
C1168      C1169   1.401       .  A
C1168      H1179   1.084       .  S
C1169      C1170   1.404       .  A
C1169      H1180   1.083       .  S
C1170      C1171   1.406       .  A
C1171      C1172   1.404       .  A
C1171      H1181   1.084       .  S
C1172      C1173   1.404       .  A
C1173      H1182   1.085       .  S
C1174      C1175   1.408       .  A
C1174      H1183   1.083       .  S
C1175      C1176   1.408       .  A
C1176      H1184   1.084       .  S
C1185      C1186   1.398       .  A
C1185      C1190   1.404       .  A
C1185      H1201   1.083       .  S
C1186      C1187   1.403       .  A
C1186      H1202   1.084       .  S
C1187      C1197   1.403       .  A
C1187      C1188   1.413       .  A
C1188      C1194   1.412       .  A
C1188      C1189   1.412       .  A
C1189      C1191   1.411       .  A
C1189      C1190   1.411       .  A
C1190      C1198   1.402       .  A
C1191      C1200   1.404       .  A
C1191      C1192   1.404       .  A
C1192      C1193   1.400       .  A
C1192      H1203   1.083       .  S
C1193      C1194   1.403       .  A
C1193      H1204   1.084       .  S
C1194      C1195   1.403       .  A
C1195      C1196   1.403       .  A
C1195      H1205   1.085       .  S
C1196      C1197   1.402       .  A
C1197      H1206   1.084       .  S
C1198      C1199   1.408       .  A
C1198      H1207   1.083       .  S
C1199      C1200   1.409       .  A
C1200      H1208   1.084       .  S
C1209      C1210   1.398       .  A
C1209      C1214   1.403       .  A
C1209      H1225   1.082       .  S
C1210      C1211   1.403       .  A
C1210      H1226   1.085       .  S
C1211      C1221   1.402       .  A
C1211      C1212   1.411       .  A
C1212      C1218   1.411       .  A
C1212      C1213   1.412       .  A
C1213      C1215   1.411       .  A
C1213      C1214   1.411       .  A
C1214      C1222   1.403       .  A
C1215      C1224   1.402       .  A
C1215      C1216   1.403       .  A
C1216      C1217   1.399       .  A
C1216      H1227   1.085       .  S
C1217      C1218   1.404       .  A
C1217      H1228   1.082       .  S
C1218      C1219   1.404       .  A
C1219      C1220   1.409       .  A
C1219      H1229   1.083       .  S
C1220      C1221   1.408       .  A
C1221      H1230   1.085       .  S
C1222      C1223   1.407       .  A
C1222      H1231   1.083       .  S
C1223      C1224   1.409       .  A
C1224      H1232   1.085       .  S
C1233      C1234   1.399       .  A
C1233      C1238   1.404       .  A
C1233      H1249   1.083       .  S
C1234      C1235   1.404       .  A
C1234      H1250   1.084       .  S
C1235      C1245   1.404       .  A
C1235      C1236   1.410       .  A
C1236      C1242   1.412       .  A
C1236      C1237   1.414       .  A
C1237      C1239   1.411       .  A
C1237      C1238   1.411       .  A
C1238      C1246   1.404       .  A
C1239      C1248   1.404       .  A
C1239      C1240   1.404       .  A
C1240      C1241   1.400       .  A
C1240      H1251   1.084       .  S
C1241      C1242   1.404       .  A
C1241      H1252   1.083       .  S
C1242      C1243   1.405       .  A
C1243      C1244   1.409       .  A
C1243      H1253   1.084       .  S
C1244      C1245   1.410       .  A
C1245      H1254   1.084       .  S
C1246      C1247   1.409       .  A
C1246      H1255   1.084       .  S
C1247      C1248   1.410       .  A
C1248      H1256   1.084       .  S
C1257      C1258   1.398       .  A
C1257      C1262   1.403       .  A
C1257      H1273   1.085       .  S
C1258      C1259   1.403       .  A
C1258      H1274   1.082       .  S
C1259      C1269   1.400       .  A
C1259      C1260   1.410       .  A
C1260      C1266   1.412       .  A
C1260      C1261   1.411       .  A
C1261      C1263   1.410       .  A
C1261      C1262   1.412       .  A
C1262      C1270   1.402       .  A
C1263      C1272   1.403       .  A
C1263      C1264   1.404       .  A
C1264      C1265   1.399       .  A
C1264      H1275   1.082       .  S
C1265      C1266   1.403       .  A
C1265      H1276   1.085       .  S
C1266      C1267   1.404       .  A
C1267      C1268   1.408       .  A
C1267      H1277   1.085       .  S
C1268      C1269   1.408       .  A
C1269      H1278   1.083       .  S
C1270      C1271   1.407       .  A
C1270      H1279   1.085       .  S
C1271      C1272   1.410       .  A
C1272      H1280   1.083       .  S
C1281      C1282   1.401       .  A
C1281      C1286   1.404       .  A
C1281      H1297   1.084       .  S
C1282      C1283   1.404       .  A
C1282      H1298   1.082       .  S
C1283      C1293   1.407       .  A
C1283      C1284   1.413       .  A
C1284      C1290   1.412       .  A
C1284      C1285   1.413       .  A
C1285      C1287   1.411       .  A
C1285      C1286   1.412       .  A
C1286      C1294   1.407       .  A
C1287      C1296   1.402       .  A
C1287      C1288   1.404       .  A
C1288      C1289   1.398       .  A
C1288      H1299   1.082       .  S
C1289      C1290   1.402       .  A
C1289      H1300   1.084       .  S
C1290      C1291   1.402       .  A
C1291      C1292   1.402       .  A
C1291      H1301   1.085       .  S
C1292      C1293   1.405       .  A
C1293      H1302   1.084       .  S
C1294      C1295   1.409       .  A
C1294      H1303   1.084       .  S
C1295      C1296   1.409       .  A
C1296      H1304   1.083       .  S
C1305      C1306   1.401       .  A
C1305      C1310   1.405       .  A
C1305      H1321   1.082       .  S
C1306      C1307   1.404       .  A
C1306      H1322   1.085       .  S
C1307      C1317   1.407       .  A
C1307      C1308   1.412       .  A
C1308      C1314   1.410       .  A
C1308      C1309   1.413       .  A
C1309      C1311   1.411       .  A
C1309      C1310   1.411       .  A
C1310      C1318   1.407       .  A
C1311      C1320   1.400       .  A
C1311      C1312   1.402       .  A
C1312      C1313   1.397       .  A
C1312      H1323   1.085       .  S
C1313      C1314   1.403       .  A
C1313      H1324   1.082       .  S
C1314      C1315   1.400       .  A
C1315      C1316   1.408       .  A
C1315      H1325   1.083       .  S
C1316      C1317   1.410       .  A
C1317      H1326   1.085       .  S
C1318      C1319   1.411       .  A
C1318      H1327   1.082       .  S
C1319      C1320   1.407       .  A
C1320      H1328   1.085       .  S
C1329      C1330   1.403       .  A
C1329      C1334   1.405       .  A
C1329      H1345   1.083       .  S
C1330      C1331   1.405       .  A
C1330      H1346   1.083       .  S
C1331      C1341   1.409       .  A
C1331      C1332   1.412       .  A
C1332      C1338   1.411       .  A
C1332      C1333   1.412       .  A
C1333      C1335   1.411       .  A
C1333      C1334   1.413       .  A
C1334      C1342   1.409       .  A
C1335      C1344   1.398       .  A
C1335      C1336   1.402       .  A
C1336      C1337   1.396       .  A
C1336      H1347   1.084       .  S
C1337      C1338   1.402       .  A
C1337      H1348   1.083       .  S
C1338      C1339   1.399       .  A
C1339      C1340   1.406       .  A
C1339      H1349   1.084       .  S
C1340      C1341   1.409       .  A
C1341      H1350   1.084       .  S
C1342      C1343   1.405       .  A
C1342      H1351   1.084       .  S
C1343      C1344   1.402       .  A
C1344      H1352   1.085       .  S
C1353      C1354   1.394       .  A
C1353      C1358   1.402       .  A
C1353      H1369   1.085       .  S
C1354      C1355   1.402       .  A
C1354      H1370   1.083       .  S
C1355      C1365   1.395       .  A
C1355      C1356   1.410       .  A
C1356      C1362   1.413       .  A
C1356      C1357   1.412       .  A
C1357      C1359   1.413       .  A
C1357      C1358   1.410       .  A
C1358      C1366   1.395       .  A
C1359      C1368   1.412       .  A
C1359      C1360   1.405       .  A
C1360      C1361   1.404       .  A
C1360      H1371   1.083       .  S
C1361      C1362   1.405       .  A
C1361      H1372   1.083       .  S
C1362      C1363   1.412       .  A
C1363      C1364   1.408       .  A
C1363      H1373   1.084       .  S
C1364      C1365   1.406       .  A
C1365      H1374   1.084       .  S
C1366      C1367   1.406       .  A
C1366      H1375   1.086       .  S
C1367      C1368   1.408       .  A
C1368      H1376   1.084       .  S
C1377      C1378   1.404       .  A
C1377      C1382   1.405       .  A
C1377      H1393   1.083       .  S
C1378      C1379   1.405       .  A
C1378      H1394   1.083       .  S
C1379      C1389   1.411       .  A
C1379      C1380   1.413       .  A
C1380      C1386   1.411       .  A
C1380      C1381   1.412       .  A
C1381      C1383   1.410       .  A
C1381      C1382   1.414       .  A
C1382      C1390   1.412       .  A
C1383      C1392   1.395       .  A
C1383      C1384   1.402   1_554  A
C1384      C1385   1.394       .  A
C1384      H1395   1.083       .  S
C1385      C1386   1.402   1_556  A
C1385      H1396   1.085       .  S
C1386      C1387   1.396       .  A
C1387      C1388   1.404       .  A
C1387      H1397   1.086   1_554  S
C1388      C1389   1.408       .  A
C1389      H1398   1.084       .  S
C1390      C1391   1.407       .  A
C1390      H1399   1.084       .  S
C1391      C1392   1.405       .  A
C1392      H1400   1.085       .  S
C1401      C1402   1.400       .  A
C1401      C1406   1.404       .  A
C1401      H1417   1.082       .  S
C1402      C1403   1.403       .  A
C1402      H1418   1.085       .  S
C1403      C1413   1.406       .  A
C1403      C1404   1.413       .  A
C1404      C1410   1.409       .  A
C1404      C1405   1.412       .  A
C1405      C1407   1.412       .  A
C1405      C1406   1.410       .  A
C1406      C1414   1.403       .  A
C1407      C1416   1.403       .  A
C1407      C1408   1.403       .  A
C1408      C1409   1.398       .  A
C1408      H1419   1.085       .  S
C1409      C1410   1.404       .  A
C1409      H1420   1.082       .  S
C1410      C1411   1.400       .  A
C1411      C1412   1.409       .  A
C1411      H1421   1.083       .  S
C1412      C1413   1.407       .  A
C1413      H1422   1.085       .  S
C1414      C1415   1.409       .  A
C1414      H1423   1.083       .  S
C1415      C1416   1.407       .  A
C1416      H1424   1.085       .  S
C1425      C1426   1.399       .  A
C1425      C1430   1.404       .  A
C1425      H1441   1.084       .  S
C1426      C1427   1.403       .  A
C1426      H1442   1.084       .  S
C1427      C1437   1.404       .  A
C1427      C1428   1.412       .  A
C1428      C1434   1.413       .  A
C1428      C1429   1.414       .  A
C1429      C1431   1.411       .  A
C1429      C1430   1.411       .  A
C1430      C1438   1.405       .  A
C1431      C1440   1.405       .  A
C1431      C1432   1.404       .  A
C1432      C1433   1.400       .  A
C1432      H1443   1.084       .  S
C1433      C1434   1.404       .  A
C1433      H1444   1.083       .  S
C1434      C1435   1.406       .  A
C1435      C1436   1.405       .  A
C1435      H1445   1.084       .  S
C1436      C1437   1.404       .  A
C1437      H1446   1.084       .  S
C1438      C1439   1.409       .  A
C1438      H1447   1.084       .  S
C1439      C1440   1.410       .  A
C1440      H1448   1.084       .  S
C1449      C1450   1.402       .  A
C1449      C1454   1.404       .  A
C1449      H1465   1.085       .  S
C1450      C1451   1.405       .  A
C1450      H1466   1.082       .  S
C1451      C1461   1.408       .  A
C1451      C1452   1.411       .  A
C1452      C1458   1.411       .  A
C1452      C1453   1.414       .  A
C1453      C1455   1.411       .  A
C1453      C1454   1.411       .  A
C1454      C1462   1.407       .  A
C1455      C1464   1.402       .  A
C1455      C1456   1.403       .  A
C1456      C1457   1.397       .  A
C1456      H1467   1.082       .  S
C1457      C1458   1.403       .  A
C1457      H1468   1.085       .  S
C1458      C1459   1.401       .  A
C1459      C1460   1.408       .  A
C1459      H1469   1.085       .  S
C1460      C1461   1.410       .  A
C1461      H1470   1.083       .  S
C1462      C1463   1.410       .  A
C1462      H1471   1.085       .  S
C1463      C1464   1.409       .  A
C1464      H1472   1.083       .  S
C1473      C1474   1.403       .  A
C1473      C1478   1.405       .  A
C1473      H1489   1.083       .  S
C1474      C1475   1.405       .  A
C1474      H1490   1.083       .  S
C1475      C1485   1.410       .  A
C1475      C1476   1.413       .  A
C1476      C1482   1.411       .  A
C1476      C1477   1.413       .  A
C1477      C1479   1.410       .  A
C1477      C1478   1.413       .  A
C1478      C1486   1.411       .  A
C1479      C1488   1.398       .  A
C1479      C1480   1.402   1_545  A
C1480      C1481   1.396       .  A
C1480      H1491   1.084       .  S
C1481      C1482   1.403   1_565  A
C1481      H1492   1.083       .  S
C1482      C1483   1.399       .  A
C1483      C1484   1.407       .  A
C1483      H1493   1.084   1_545  S
C1484      C1485   1.407       .  A
C1485      H1494   1.084       .  S
C1486      C1487   1.407       .  A
C1486      H1495   1.084       .  S
C1487      C1488   1.406       .  A
C1488      H1496   1.085   1_545  S
C1497      C1498   1.398       .  A
C1497      C1502   1.404       .  A
C1497      H1513   1.084       .  S
C1498      C1499   1.403       .  A
C1498      H1514   1.084       .  S
C1499      C1509   1.403       .  A
C1499      C1500   1.411       .  A
C1500      C1506   1.411       .  A
C1500      C1501   1.416       .  A
C1501      C1503   1.412       .  A
C1501      C1502   1.410       .  A
C1502      C1510   1.403       .  A
C1503      C1512   1.411       .  A
C1503      C1504   1.405       .  A
C1504      C1505   1.403       .  A
C1504      H1515   1.083       .  S
C1505      C1506   1.405       .  A
C1505      H1516   1.084       .  S
C1506      C1507   1.410       .  A
C1507      C1508   1.410       .  A
C1507      H1517   1.084       .  S
C1508      C1509   1.408       .  A
C1509      H1518   1.084       .  S
C1510      C1511   1.410       .  A
C1510      H1519   1.084       .  S
C1511      C1512   1.410       .  A
C1512      H1520   1.084       .  S
