geometry optimzed in LAMMPS
_audit_creation_date              2020-11-30 
_audit_creation_method            'lammps2cif' 
_symmetry_space_group_name_H-M    'P1' 
_symmetry_Int_Tables_number       1 
_symmetry_cell_setting            triclinic 
loop_ 
_symmetry_equiv_pos_as_xyz 
  x,y,z 
_cell_length_a                    43.4603108 
_cell_length_b                    43.46060608132154 
_cell_length_c                    43.46239537218921 
_cell_angle_alpha                 89.99162859706276 
_cell_angle_beta                  90.01240393179897 
_cell_angle_gamma                 90.00887447308857 
loop_ 
_atom_site_label 
_atom_site_type_symbol 
_atom_site_fract_x 
_atom_site_fract_y 
_atom_site_fract_z 
_atom_site_charge 
C1          C  0.12368577  0.42103102  0.02714737     0.79900
N2          N  0.12234156  0.40555823  0.50012296    -0.78400
C3          C  0.12253776  0.42097898  0.47303103     0.82300
N4          N  0.12351891  0.45223528  0.47299346    -0.78400
C5          C  0.12531649  0.46800654  0.99998473     0.82400
N6          N  0.12459263  0.45228893  0.02706043    -0.80100
C7          C  0.30776532  0.04864656  0.02697788     0.79900
N8          N  0.30488448  0.01747573  0.02709574    -0.78400
C9          C  0.30319129  0.00171245  0.00003119     0.82300
N10         N  0.30490075  0.01734155  0.47287489    -0.78400
C11         C  0.30777403  0.04849985  0.47277578     0.82400
N12         N  0.30940870  0.06379931  0.99983202    -0.80100
C13         C  0.39993410  0.01179191  0.15652166     0.79900
N14         N  0.38471275  0.48468633  0.15487827    -0.78400
C15         C  0.39993644  0.45758402  0.15652990     0.82300
N16         N  0.43109744  0.45759551  0.15943641    -0.78400
C17         C  0.44679590  0.48471127  0.16114108     0.82400
N18         N  0.43110173  0.01181892  0.15941771    -0.80100
C19         C  0.02791146  0.01136123  0.34210155     0.79900
N20         N  0.99667752  0.01163466  0.33968815    -0.78400
C21         C  0.48071383  0.48466918  0.33869606     0.82300
N22         N  0.99617120  0.45749594  0.34085749    -0.78400
C23         C  0.02735117  0.45719169  0.34271722     0.82400
N24         N  0.04297641  0.48408439  0.34370656    -0.80100
C25         C  0.43728037  0.32798571  0.06434063     0.79900
N26         N  0.43697907  0.32540218  0.03313983    -0.78400
C27         C  0.46391370  0.32405956  0.01717431     0.82300
N28         N  0.49111321  0.32596091  0.03257652    -0.78400
C29         C  0.49145399  0.32796230  0.06373839     0.82400
N30         N  0.46458278  0.32936887  0.07939650    -0.80100
C31         C  0.43677248  0.14109055  0.43601123     0.79900
N32         N  0.43680065  0.14426427  0.46716138    -0.78400
C33         C  0.46394324  0.14612747  0.48284072     0.82300
N34         N  0.49104617  0.14426270  0.46711512    -0.78400
C35         C  0.49099086  0.14108598  0.43596439     0.82400
N36         N  0.46386416  0.13930920  0.42080040    -0.80100
C37         C  0.30640389  0.42060959  0.02689222     0.79900
N38         N  0.30412235  0.45185599  0.02706147    -0.78400
C39         C  0.30287528  0.46774411  0.50003720     0.82300
N40         N  0.30465814  0.45218237  0.47290842    -0.78400
C41         C  0.30635865  0.42098346  0.47272714     0.82400
N42         N  0.30763939  0.40545953  0.49966555    -0.80100
C43         C  0.11975709  0.04870802  0.47279899     0.79900
N44         N  0.11806242  0.06398286  0.99987286    -0.78400
C45         C  0.11978566  0.04879602  0.02700179     0.82300
N46         N  0.12283086  0.01765104  0.02705022    -0.78400
C47         C  0.12455992  0.00193652  0.99996663     0.82400
N48         N  0.12277546  0.01757060  0.47283912    -0.80100
C49         C  0.39955693  0.01136318  0.34224530     0.79900
N50         N  0.43080075  0.01165735  0.33984283    -0.78400
C51         C  0.44676185  0.48468330  0.33868792     0.82300
N52         N  0.43130370  0.45752183  0.34065949    -0.78400
C53         C  0.40013225  0.45719139  0.34248464     0.82400
N54         N  0.38449283  0.48407516  0.34366826    -0.80100
C55         C  0.02785419  0.01156004  0.15740965     0.79900
N56         N  0.99663293  0.01170313  0.15991754    -0.78400
C57         C  0.48076969  0.48467368  0.16128318     0.82300
N58         N  0.99633736  0.45754257  0.15939204    -0.78400
C59         C  0.02753173  0.45740314  0.15744882     0.82400
N60         N  0.04301435  0.48435198  0.15604751    -0.80100
C61         C  0.43671189  0.32525375  0.43627771     0.79900
N62         N  0.43672396  0.32448993  0.46754337    -0.78400
C63         C  0.46376677  0.32338939  0.48327660     0.82300
N64         N  0.49078713  0.32461466  0.46753443    -0.78400
C65         C  0.49084411  0.32540196  0.43629746     0.82400
N66         N  0.46378448  0.32600906  0.42081961    -0.80100
C67         C  0.43683685  0.14185982  0.06374990     0.79900
N68         N  0.43684611  0.14468561  0.03257085    -0.78400
C69         C  0.46396653  0.14635405  0.01686587     0.82300
N70         N  0.49107933  0.14462138  0.03260574    -0.78400
C71         C  0.49104473  0.14179233  0.06379359     0.82400
N72         N  0.46392912  0.14022060  0.07898318    -0.80100
C73         C  0.14971241  0.26137084  0.40822525     0.79900
N74         N  0.13469031  0.23408893  0.40646321    -0.78400
C75         C  0.15033500  0.20720936  0.40738207     0.82300
N76         N  0.18150997  0.20754386  0.40934738    -0.78400
C77         C  0.19693992  0.23471633  0.41166729     0.82400
N78         N  0.18094615  0.26168294  0.41073494    -0.80100
C79         C  0.14986139  0.26164984  0.09294398     0.79900
N80         N  0.13468622  0.23442437  0.09422158    -0.78400
C81         C  0.15022009  0.20748380  0.09288822     0.82300
N82         N  0.18141015  0.20767304  0.09107883    -0.78400
C83         C  0.19694539  0.23480897  0.08929706     0.82400
N84         N  0.18107821  0.26181228  0.09056210    -0.80100
C85         C  0.05495219  0.17091059  0.22286300     0.79900
N86         N  0.05381400  0.20216937  0.22287639    -0.78400
C87         C  0.05248323  0.21791714  0.24990993     0.82300
N88         N  0.05384633  0.20216841  0.27696406    -0.78400
C89         C  0.05499950  0.17091125  0.27699155     0.82400
N90         N  0.05585424  0.15547707  0.24993207    -0.80100
O91         O  0.09022199  0.15594895  0.31485238    -0.78800
C92         C  0.13389510  0.17887690  0.39990415     0.82200
O93         O  0.14584176  0.06341344  0.34765318    -0.79900
O94         O  0.10610256  0.09397685  0.44663778    -0.81400
O95         O  0.01675126  0.12631294  0.39076419    -0.81200
O96         O  0.04256165  0.13724989  0.31809407    -0.79800
Zn97       Zn  0.11506863  0.13550723  0.34802416     1.55700
O98         O  0.04542843  0.13678685  0.43208540    -0.81200
Cd99       Cd  0.04631827  0.11005096  0.35734747     1.59700
Cd100      Cd  0.10596891  0.06691405  0.37391937     1.59600
O101        O  0.03153764  0.06569044  0.34720696    -0.81200
O102        O  0.08941973  0.11002042  0.37383096    -1.91700
Cd103      Cd  0.08965757  0.12691548  0.41679545     1.59900
O104        O  0.07319450  0.03715667  0.35670696    -0.81200
O105        O  0.11671106  0.16624555  0.42001773    -0.79800
C106        C  0.15839096  0.08329378  0.33013441     0.82700
C107        C  0.06265784  0.15423547  0.30515614     0.82300
O108        O  0.13582237  0.16881511  0.37249352    -0.78800
C109        C  0.01940698  0.13490320  0.41870520     0.83200
O110        O  0.14814988  0.11059147  0.32763715    -0.78900
C111        C  0.04517316  0.03974863  0.34839721     0.83300
C112        C  0.11383012  0.06577997  0.44426246     0.83600
O113        O  0.11502478  0.05197877  0.41842299    -0.81300
C114        C  0.37245861  0.17063218  0.27706812     0.79900
N115        N  0.37369918  0.20187891  0.27708509    -0.78400
C116        C  0.37511917  0.21761823  0.25006052     0.82300
N117        N  0.37381292  0.20189897  0.22300882    -0.78400
C118        C  0.37257891  0.17065961  0.22294113     0.82400
N119        N  0.37159104  0.15519852  0.24999247    -0.80100
C120        C  0.18664298  0.07575223  0.31360244     0.79900
N121        N  0.18671504  0.07465693  0.28235725    -0.78400
C122        C  0.21378493  0.07346855  0.26666947     0.82300
N123        N  0.24078599  0.07485955  0.28242810    -0.78400
C124        C  0.24077285  0.07596566  0.31366534     0.82400
N125        N  0.21368854  0.07669585  0.32909484    -0.80100
O126        O  0.29198847  0.16900058  0.37269578    -0.78800
C127        C  0.36478346  0.15402115  0.30522120     0.82200
O128        O  0.28161240  0.06358096  0.34760346    -0.79900
O129        O  0.39595242  0.06568139  0.34756158    -0.81400
O130        O  0.38231394  0.13665987  0.43225178    -0.81200
O131        O  0.31106358  0.16626809  0.42024210    -0.79800
Zn132      Zn  0.31243303  0.13563092  0.34819230     1.55700
O133        O  0.41087491  0.12646606  0.39081041    -0.81200
Cd134      Cd  0.33802668  0.12686940  0.41695192     1.59700
Cd135      Cd  0.32145810  0.06698921  0.37389250     1.59600
O136        O  0.32155581  0.09378974  0.44667391    -0.81200
O137        O  0.33808174  0.11008051  0.37395551    -1.91700
Cd138      Cd  0.38117881  0.11007225  0.35754225     1.59900
O139        O  0.31235717  0.05191153  0.41835700    -0.81200
O140        O  0.38485965  0.13703691  0.31817845    -0.79800
C141        C  0.26897011  0.08354318  0.33025564     0.82700
C142        C  0.29395123  0.17899734  0.40012100     0.82300
O143        O  0.33725193  0.15588401  0.31495814    -0.78800
C144        C  0.40830158  0.13491954  0.41879723     0.83200
O145        O  0.27915304  0.11087784  0.32789488    -0.78900
C146        C  0.31369334  0.06562452  0.44424104     0.83300
C147        C  0.38227964  0.03975272  0.34856974     0.83600
O148        O  0.35419291  0.03717411  0.35666904    -0.81300
C149        C  0.05780303  0.29864907  0.27714742     0.79900
N150        N  0.05475509  0.26750954  0.27706333    -0.78400
C151        C  0.05312407  0.25187831  0.24992640     0.82300
N152        N  0.05501826  0.26761806  0.22283885    -0.78400
C153        C  0.05808872  0.29877262  0.22291644     0.82400
N154        N  0.05966701  0.31393382  0.25006980    -0.80100
O155        O  0.08715123  0.40586989  0.43531409    -0.78800
C156        C  0.04379215  0.42884535  0.35015456     0.82200
O157        O  0.03172893  0.31318727  0.40232803    -0.79900
O158        O  0.07139713  0.34392152  0.30340001    -0.81400
O159        O  0.16084525  0.37611578  0.35951087    -0.81200
O160        O  0.13484338  0.38726876  0.43202165    -0.79800
Zn161      Zn  0.06236706  0.38538185  0.40204191     1.55700
O162        O  0.13225730  0.38646071  0.31809282    -0.81200
Cd163      Cd  0.13115759  0.35999995  0.39288961     1.59700
Cd164      Cd  0.07162080  0.31678452  0.37612252     1.59600
O165        O  0.14597512  0.31571439  0.40325049    -0.81200
O166        O  0.08809544  0.35992511  0.37627975    -1.91700
Cd167      Cd  0.08795393  0.37681138  0.33329940     1.59900
O168        O  0.10445603  0.28709630  0.39339528    -0.81200
O169        O  0.06108413  0.41629306  0.33008597    -0.79800
C170        C  0.01905031  0.33305948  0.41974868     0.82700
C171        C  0.11474251  0.40421309  0.44497180     0.82300
O172        O  0.04170307  0.41867344  0.37751262    -0.78800
C173        C  0.15824873  0.38457666  0.33152255     0.83200
O174        O  0.02920258  0.36039720  0.42223883    -0.78900
C175        C  0.13241771  0.28974366  0.40190959     0.83300
C176        C  0.06369672  0.31570754  0.30573036     0.83600
O177        O  0.06255282  0.30186793  0.33156755    -0.81300
C178        C  0.27808350  0.26149117  0.40798536     0.79900
N179        N  0.29314736  0.23421906  0.40641669    -0.78400
C180        C  0.27754709  0.20732826  0.40759522     0.82300
N181        N  0.24638053  0.20761164  0.40956637    -0.78400
C182        C  0.23090427  0.23477163  0.41167964     0.82400
N183        N  0.24685147  0.26175754  0.41053233    -0.80100
C184        C  0.18669518  0.39061809  0.31426473     0.79900
N185        N  0.18661953  0.39390376  0.28311775    -0.78400
C186        C  0.21373222  0.39575908  0.26740660     0.82300
N187        N  0.24085631  0.39382019  0.28307019    -0.78400
C188        C  0.24090993  0.39052803  0.31418870     0.82400
N189        N  0.21382420  0.38873858  0.32942012    -0.80100
C190        C  0.37101079  0.29864950  0.27680447     0.79900
N191        N  0.37345111  0.26742941  0.27699732    -0.78400
C192        C  0.37480031  0.25154587  0.25000116     0.82300
N193        N  0.37303865  0.26706281  0.22285639    -0.78400
C194        C  0.37117543  0.29824614  0.22264266     0.82400
N195        N  0.36976122  0.31379626  0.24956524    -0.80100
O196        O  0.38624924  0.41836256  0.37702120    -0.78800
C197        C  0.31368289  0.40441472  0.44447279     0.82200
O198        O  0.39594237  0.31303434  0.40213925    -0.79900
O199        O  0.28189141  0.31584383  0.40305341    -0.81400
O200        O  0.29535375  0.38604373  0.31771138    -0.81200
O201        O  0.36628120  0.41640124  0.32980401    -0.79800
Zn202      Zn  0.36558578  0.38519276  0.40150217     1.55700
O203        O  0.26695627  0.37624887  0.35938977    -0.81200
Cd204      Cd  0.33979139  0.37664594  0.33279534     1.59700
Cd205      Cd  0.35622525  0.31674372  0.37564456     1.59600
O206        O  0.35685577  0.34398670  0.30280459    -0.81200
O207        O  0.33974002  0.35982982  0.37579819    -1.91700
Cd208      Cd  0.29676708  0.36010111  0.39261321     1.59900
O209        O  0.36564566  0.30201391  0.33111550    -0.81200
O210        O  0.29340911  0.38751282  0.43170799    -0.79800
C211        C  0.40856263  0.33288525  0.41963381     0.82700
C212        C  0.38378717  0.42879144  0.34980133     0.82300
O213        O  0.34118476  0.40592574  0.43464956    -0.78800
C214        C  0.26942599  0.38444257  0.33132011     0.83200
O215        O  0.39850382  0.36025119  0.42198668    -0.78900
C216        C  0.36472637  0.31582305  0.30524983     0.83300
C217        C  0.29536275  0.28983637  0.40151281     0.83600
O218        O  0.32324258  0.28713689  0.39275853    -0.81300
C219        C  0.18676663  0.07625504  0.18582502     0.79900
N220        N  0.21382555  0.07743032  0.17036951    -0.78400
C221        C  0.24089772  0.07661053  0.18582890     0.82300
N222        N  0.24087653  0.07520930  0.21706430    -0.78400
C223        C  0.21383193  0.07362823  0.23276659     0.82400
N224        N  0.18680463  0.07487075  0.21704526    -0.80100
O225        O  0.29267100  0.16974178  0.12665702    -0.78800
C226        C  0.26915595  0.08415170  0.16927552     0.82200
O227        O  0.38504540  0.13705329  0.18180320    -0.79900
O228        O  0.35461378  0.03775311  0.14249014    -0.81400
O229        O  0.32172496  0.09404003  0.05281997    -0.81200
O230        O  0.31134297  0.16670361  0.07898483    -0.79800
Zn231      Zn  0.31277589  0.13618484  0.15127287     1.55700
O232        O  0.31231392  0.05234120  0.08133167    -0.81200
Cd233      Cd  0.33818239  0.12720900  0.08249116     1.59700
Cd234      Cd  0.38142321  0.11051056  0.14210017     1.59600
O235        O  0.38245665  0.13703074  0.06736615    -0.81200
O236        O  0.33832668  0.11053541  0.12556123    -1.91700
Cd237      Cd  0.32165817  0.06748229  0.12566978     1.59900
O238        O  0.41099078  0.12733965  0.10898172    -0.81200
O239        O  0.28193439  0.06407016  0.15216885    -0.79800
C240        C  0.36499533  0.15412268  0.19468565     0.82700
C241        C  0.29448655  0.17964393  0.09917392     0.82300
O242        O  0.27925305  0.11154169  0.17141014    -0.78800
C243        C  0.31372920  0.06592029  0.05539132     0.83200
O244        O  0.33755647  0.15621245  0.18471834    -0.78900
C245        C  0.40840480  0.13561910  0.08094033     0.83300
C246        C  0.38276770  0.04024918  0.15039372     0.83600
O247        O  0.39647422  0.06613783  0.15154048    -0.81300
C248        C  0.18710916  0.39306020  0.18616830     0.79900
N249        N  0.18684642  0.39520808  0.21742666    -0.78400
C250        C  0.21382018  0.39640407  0.23340859     0.82300
N251        N  0.24100898  0.39468712  0.21789995    -0.78400
C252        C  0.24128681  0.39314705  0.18668037     0.82400
N253        N  0.21438634  0.39192730  0.17109414    -0.80100
C254        C  0.27781046  0.26200082  0.09136666     0.79900
N255        N  0.24656421  0.26194563  0.09021986    -0.78400
C256        C  0.23086557  0.23488904  0.08900525     0.82300
N257        N  0.24662421  0.20787023  0.09045601    -0.78400
C258        C  0.27786608  0.20786706  0.09163811     0.82400
N259        N  0.29329461  0.23495324  0.09238497    -0.80100
O260        O  0.33668447  0.31268515  0.18404301    -0.78800
C261        C  0.26954846  0.38565487  0.17012389     0.82200
O262        O  0.31198784  0.30269459  0.07904114    -0.79900
O263        O  0.31142406  0.41693768  0.08126142    -0.81400
O264        O  0.39629410  0.40316184  0.15207391    -0.81200
O265        O  0.38416404  0.33198766  0.18187914    -0.79800
Zn266      Zn  0.31230519  0.33351215  0.15098048     1.55700
O267        O  0.35475845  0.43169326  0.14200829    -0.81200
Cd268      Cd  0.38119774  0.35882046  0.14237554     1.59700
Cd269      Cd  0.33838761  0.34250219  0.08247751     1.59600
O270        O  0.41128701  0.34201610  0.10971312    -0.81200
O271        O  0.33819085  0.35908171  0.12552352    -1.91700
Cd272      Cd  0.32149539  0.40208806  0.12564689     1.59900
O273        O  0.38295451  0.33313448  0.06778468    -0.81200
O274        O  0.28228418  0.40573109  0.15295724    -0.79800
C275        C  0.29435062  0.29024535  0.09887854     0.82700
C276        C  0.36399218  0.31471683  0.19430887     0.81500
O277        O  0.27933788  0.35814817  0.17183308    -0.78800
C278        C  0.38276227  0.42912363  0.15039957     0.83200
O279        O  0.29176446  0.30055567  0.12613164    -0.78900
C280        C  0.40883972  0.33415398  0.08155899     0.83300
C281        C  0.31281243  0.40336545  0.05529502     0.83600
O282        O  0.32129946  0.37538775  0.05269089    -0.81300
O283        O  0.03058658  0.36216319  0.07748143    -0.78800
C284        C  0.04414945  0.42917933  0.15012479     0.82200
O285        O  0.13599220  0.38703383  0.06807697    -0.79900
O286        O  0.13274584  0.38796685  0.18218628    -0.81400
O287        O  0.06254434  0.30250760  0.16847259    -0.81200
O288        O  0.03212856  0.31501371  0.09762937    -0.79800
Zn289      Zn  0.06376987  0.38643156  0.09824184     1.55700
O290        O  0.07239338  0.34407258  0.19700254    -0.81200
Cd291      Cd  0.07194741  0.31774398  0.12406857     1.59700
Cd292      Cd  0.13211108  0.36053348  0.10784032     1.59600
O293        O  0.10452613  0.28774238  0.10689936    -0.81200
O294        O  0.08895654  0.36066772  0.12419406    -1.91700
Cd295      Cd  0.08850686  0.37736049  0.16720778     1.59900
O296        O  0.14666542  0.31594272  0.09845630    -0.81200
O297        O  0.06083144  0.41628440  0.17050112    -0.79800
C298        C  0.11614107  0.40448586  0.05538318     0.82700
C299        C  0.01992226  0.33505549  0.08004505     0.82300
O300        O  0.04296985  0.41956364  0.12253864    -0.78800
C301        C  0.06417170  0.31601537  0.19444927     0.83200
O302        O  0.08876688  0.40682293  0.06539254    -0.78900
C303        C  0.13274234  0.29012552  0.09919652     0.83300
C304        C  0.15881338  0.38645348  0.16881342     0.83600
O305        O  0.16162291  0.37764431  0.14095624    -0.81300
O306        O  0.13546139  0.16907913  0.12748193    -0.78800
C307        C  0.06259775  0.15425495  0.19470832     0.82200
O308        O  0.14587497  0.06380415  0.15195316    -0.79900
O309        O  0.03136841  0.06590014  0.15211552    -0.81400
O310        O  0.04544783  0.13717568  0.06764886    -0.81200
O311        O  0.11673900  0.16652014  0.07979710    -0.79800
Zn312      Zn  0.11489803  0.13574191  0.15176375     1.55700
O313        O  0.01675441  0.12696652  0.10902164    -0.81200
Cd314      Cd  0.08966053  0.12717541  0.08290186     1.59700
Cd315      Cd  0.10594602  0.06722674  0.12578956     1.59600
O316        O  0.10607651  0.09415736  0.05305161    -0.81200
O317        O  0.08934560  0.11029315  0.12586736    -1.91700
Cd318      Cd  0.04625208  0.11031738  0.14232437     1.59900
O319        O  0.11507128  0.05223187  0.08135726    -0.81200
O320        O  0.04253162  0.13722918  0.18177538    -0.79800
C321        C  0.15847413  0.08373324  0.16937130     0.82700
C322        C  0.13371631  0.17916215  0.10008579     0.82300
O323        O  0.09012798  0.15607882  0.18496839    -0.78800
C324        C  0.01943626  0.13550594  0.08106417     0.83200
O325        O  0.14816367  0.11099005  0.17193293    -0.78900
C326        C  0.11384756  0.06596859  0.05548448     0.83300
C327        C  0.04505675  0.03998210  0.15104116     0.83600
O328        O  0.07314379  0.03744036  0.14292968    -0.81300
C329        C  0.12368580  0.42103109  0.52714737     0.79900
N330        N  0.12234151  0.40555819  0.00012286    -0.78400
C331        C  0.12253770  0.42097903  0.97303134     0.82300
N332        N  0.12351888  0.45223528  0.97299279    -0.78400
C333        C  0.12531647  0.46800677  0.49998357     0.82400
N334        N  0.12459267  0.45228881  0.52706091    -0.80100
C335        C  0.30776516  0.04864657  0.52697766     0.79900
N336        N  0.30488448  0.01747538  0.52709570    -0.78400
C337        C  0.30319129  0.00171286  0.50003128     0.82300
N338        N  0.30490068  0.01734185  0.97287495    -0.78400
C339        C  0.30777406  0.04849985  0.97277559     0.82400
N340        N  0.30940872  0.06379919  0.49983169    -0.80100
C341        C  0.39993371  0.01179244  0.65652149     0.79900
N342        N  0.38471253  0.48468653  0.65487824    -0.78400
C343        C  0.39993699  0.45758393  0.65652994     0.82300
N344        N  0.43109710  0.45759566  0.65943632    -0.78400
C345        C  0.44679632  0.48471093  0.66114101     0.82400
N346        N  0.43110225  0.01181854  0.65941767    -0.80100
C347        C  0.02791137  0.01136121  0.84210153     0.79900
N348        N  0.99667764  0.01163481  0.83968810    -0.78400
C349        C  0.48071363  0.48466974  0.83869605     0.82300
N350        N  0.99617104  0.45749593  0.84085743    -0.78400
C351        C  0.02735155  0.45719163  0.84271723     0.82400
N352        N  0.04297633  0.48408421  0.84370643    -0.80100
C353        C  0.43728072  0.32798570  0.56434041     0.79900
N354        N  0.43697864  0.32540219  0.53314005    -0.78400
C355        C  0.46391409  0.32405971  0.51717449     0.82300
N356        N  0.49111316  0.32596089  0.53257630    -0.78400
C357        C  0.49145367  0.32796230  0.56373858     0.82400
N358        N  0.46458281  0.32936878  0.57939657    -0.80100
C359        C  0.43677235  0.14109050  0.93601116     0.79900
N360        N  0.43680067  0.14426429  0.96716145    -0.78400
C361        C  0.46394307  0.14612744  0.98284071     0.82300
N362        N  0.49104628  0.14426262  0.96711515    -0.78400
C363        C  0.49099056  0.14108591  0.93596468     0.82400
N364        N  0.46386404  0.13930910  0.92080036    -0.80100
C365        C  0.30640384  0.42060997  0.52689265     0.79900
N366        N  0.30412246  0.45185575  0.52706127    -0.78400
C367        C  0.30287524  0.46774383  0.00003725     0.82300
N368        N  0.30465806  0.45218268  0.97290854    -0.78400
C369        C  0.30635846  0.42098325  0.97272723     0.82400
N370        N  0.30763933  0.40545982  0.99966561    -0.80100
C371        C  0.11975705  0.04870761  0.97279860     0.79900
N372        N  0.11806238  0.06398289  0.49987275    -0.78400
C373        C  0.11978584  0.04879563  0.52700209     0.82300
N374        N  0.12283080  0.01765109  0.52704981    -0.78400
C375        C  0.12456008  0.00193614  0.49996760     0.82400
N376        N  0.12277545  0.01757059  0.97283936    -0.80100
C377        C  0.39955687  0.01136372  0.84224539     0.79900
N378        N  0.43080064  0.01165737  0.83984286    -0.78400
C379        C  0.44676216  0.48468277  0.83868791     0.82300
N380        N  0.43130392  0.45752205  0.84065940    -0.78400
C381        C  0.40013210  0.45719118  0.84248467     0.82400
N382        N  0.38449285  0.48407520  0.84366821    -0.80100
C383        C  0.02785424  0.01155995  0.65740971     0.79900
N384        N  0.99663311  0.01170321  0.65991749    -0.78400
C385        C  0.48076929  0.48467395  0.66128317     0.82300
N386        N  0.99633723  0.45754282  0.65939190    -0.78400
C387        C  0.02753205  0.45740293  0.65744877     0.82400
N388        N  0.04301419  0.48435214  0.65604753    -0.80100
C389        C  0.43671197  0.32525378  0.93627761     0.79900
N390        N  0.43672393  0.32448995  0.96754359    -0.78400
C391        C  0.46376714  0.32338930  0.98327648     0.82300
N392        N  0.49078695  0.32461461  0.96753441    -0.78400
C393        C  0.49084427  0.32540203  0.93629751     0.82400
N394        N  0.46378447  0.32600910  0.92081962    -0.80100
C395        C  0.43683726  0.14185994  0.56374955     0.79900
N396        N  0.43684597  0.14468554  0.53257095    -0.78400
C397        C  0.46396664  0.14635406  0.51686607     0.82300
N398        N  0.49107922  0.14462134  0.53260538    -0.78400
C399        C  0.49104497  0.14179218  0.56379399     0.82400
N400        N  0.46392887  0.14022055  0.57898319    -0.80100
C401        C  0.14971214  0.26137124  0.90822528     0.79900
N402        N  0.13469013  0.23408860  0.90646322    -0.78400
C403        C  0.15033543  0.20720968  0.90738195     0.82300
N404        N  0.18150960  0.20754377  0.90934738    -0.78400
C405        C  0.19693993  0.23471639  0.91166727     0.82400
N406        N  0.18094638  0.26168288  0.91073497    -0.80100
C407        C  0.14986139  0.26164908  0.59294398     0.79900
N408        N  0.13468610  0.23442484  0.59422148    -0.78400
C409        C  0.15021996  0.20748387  0.59288819     0.82300
N410        N  0.18141035  0.20767314  0.59107878    -0.78400
C411        C  0.19694502  0.23480855  0.58929715     0.82400
N412        N  0.18107841  0.26181259  0.59056199    -0.80100
C413        C  0.05495199  0.17091021  0.72286305     0.79900
N414        N  0.05381398  0.20216942  0.72287649    -0.78400
C415        C  0.05248317  0.21791722  0.74990975     0.82300
N416        N  0.05384640  0.20216807  0.77696413    -0.78400
C417        C  0.05499960  0.17091177  0.77699149     0.82400
N418        N  0.05585430  0.15547706  0.74993206    -0.80100
O419        O  0.09022234  0.15594897  0.81485243    -0.78800
C420        C  0.13389489  0.17887690  0.89990452     0.82200
O421        O  0.14584173  0.06341339  0.84765318    -0.79900
O422        O  0.10610258  0.09397680  0.94663777    -0.81400
O423        O  0.01675136  0.12631282  0.89076434    -0.81200
O424        O  0.04256174  0.13725000  0.81809407    -0.79800
Zn425      Zn  0.11506859  0.13550723  0.84802419     1.55700
O426        O  0.04542851  0.13678685  0.93208552    -0.81200
Cd427      Cd  0.04631834  0.11005091  0.85734738     1.59700
Cd428      Cd  0.10596895  0.06691415  0.87391925     1.59600
O429        O  0.03153753  0.06569051  0.84720676    -0.81200
O430        O  0.08941974  0.11002044  0.87383095    -1.91700
Cd431      Cd  0.08965761  0.12691548  0.91679548     1.59900
O432        O  0.07319457  0.03715653  0.85670691    -0.81200
O433        O  0.11671120  0.16624566  0.92001755    -0.79800
C434        C  0.15839095  0.08329395  0.83013434     0.82700
C435        C  0.06265747  0.15423523  0.80515616     0.82300
O436        O  0.13582236  0.16881511  0.87249340    -0.78800
C437        C  0.01940696  0.13490310  0.91870504     0.83200
O438        O  0.14815002  0.11059120  0.82763716    -0.78900
C439        C  0.04517340  0.03974889  0.84839719     0.83300
C440        C  0.11382998  0.06578050  0.94426251     0.83600
O441        O  0.11502485  0.05197866  0.91842295    -0.81300
C442        C  0.37245845  0.17063188  0.77706822     0.79900
N443        N  0.37369910  0.20187917  0.77708491    -0.78400
C444        C  0.37511916  0.21761841  0.75006111     0.82300
N445        N  0.37381292  0.20189848  0.72300868    -0.78400
C446        C  0.37257902  0.17065973  0.72294088     0.82400
N447        N  0.37159102  0.15519854  0.74999258    -0.80100
C448        C  0.18664285  0.07575243  0.81360242     0.79900
N449        N  0.18671546  0.07465686  0.78235715    -0.78400
C450        C  0.21378376  0.07346855  0.76666956     0.82300
N451        N  0.24078645  0.07485948  0.78242814    -0.78400
C452        C  0.24077286  0.07596568  0.81366550     0.82400
N453        N  0.21368854  0.07669573  0.82909468    -0.80100
O454        O  0.29198838  0.16900037  0.87269539    -0.78800
C455        C  0.36478365  0.15402124  0.80522127     0.82200
O456        O  0.28161244  0.06358083  0.84760360    -0.79900
O457        O  0.39595245  0.06568160  0.84756162    -0.81400
O458        O  0.38231390  0.13665992  0.93225176    -0.81200
O459        O  0.31106355  0.16626813  0.92024209    -0.79800
Zn460      Zn  0.31243293  0.13563091  0.84819235     1.55700
O461        O  0.41087479  0.12646603  0.89081043    -0.81200
Cd462      Cd  0.33802656  0.12686945  0.91695199     1.59700
Cd463      Cd  0.32145798  0.06698926  0.87389255     1.59600
O464        O  0.32155575  0.09378992  0.94667394    -0.81200
O465        O  0.33808166  0.11008051  0.87395558    -1.91700
Cd466      Cd  0.38117871  0.11007221  0.85754230     1.59900
O467        O  0.31235721  0.05191173  0.91835709    -0.81200
O468        O  0.38485949  0.13703697  0.81817854    -0.79800
C469        C  0.26897006  0.08354325  0.83025548     0.82700
C470        C  0.29395099  0.17899760  0.90012141     0.82300
O471        O  0.33725160  0.15588395  0.81495826    -0.78800
C472        C  0.40830158  0.13491964  0.91879742     0.83200
O473        O  0.27915298  0.11087763  0.82789492    -0.78900
C474        C  0.31369314  0.06562445  0.94424120     0.83300
C475        C  0.38227973  0.03975240  0.84856974     0.83600
O476        O  0.35419285  0.03717417  0.85666914    -0.81300
C477        C  0.05780291  0.29864853  0.77714716     0.79900
N478        N  0.05475498  0.26750945  0.77706328    -0.78400
C479        C  0.05312412  0.25187875  0.74992662     0.82300
N480        N  0.05501823  0.26761773  0.72283890    -0.78400
C481        C  0.05808880  0.29877247  0.72291656     0.82400
N482        N  0.05966696  0.31393408  0.75006991    -0.80100
O483        O  0.08715110  0.40587004  0.93531388    -0.78800
C484        C  0.04379204  0.42884559  0.85015464     0.82200
O485        O  0.03172879  0.31318733  0.90232803    -0.79900
O486        O  0.07139698  0.34392149  0.80339991    -0.81400
O487        O  0.16084514  0.37611585  0.85951078    -0.81200
O488        O  0.13484310  0.38726872  0.93202166    -0.79800
Zn489      Zn  0.06236709  0.38538188  0.90204184     1.55700
O490        O  0.13225718  0.38646056  0.81809277    -0.81200
Cd491      Cd  0.13115763  0.35999989  0.89288955     1.59700
Cd492      Cd  0.07162074  0.31678455  0.87612250     1.59600
O493        O  0.14597519  0.31571464  0.90325045    -0.81200
O494        O  0.08809546  0.35992513  0.87627969    -1.91700
Cd495      Cd  0.08795383  0.37681135  0.83329931     1.59900
O496        O  0.10445575  0.28709645  0.89339536    -0.81200
O497        O  0.06108421  0.41629296  0.83008584    -0.79800
C498        C  0.01905051  0.33305945  0.91974860     0.82700
C499        C  0.11474296  0.40421307  0.94497186     0.82300
O500        O  0.04170300  0.41867342  0.87751234    -0.78800
C501        C  0.15824911  0.38457656  0.83152274     0.83200
O502        O  0.02920272  0.36039744  0.92223891    -0.78900
C503        C  0.13241801  0.28974324  0.90190956     0.83300
C504        C  0.06369658  0.31570772  0.80573039     0.83600
O505        O  0.06255279  0.30186777  0.83156763    -0.81300
C506        C  0.27808349  0.26149126  0.90798517     0.79900
N507        N  0.29314716  0.23421932  0.90641669    -0.78400
C508        C  0.27754707  0.20732810  0.90759512     0.82300
N509        N  0.24638049  0.20761156  0.90956638    -0.78400
C510        C  0.23090433  0.23477178  0.91167958     0.82400
N511        N  0.24685131  0.26175753  0.91053232    -0.80100
C512        C  0.18669484  0.39061823  0.81426430     0.79900
N513        N  0.18661983  0.39390365  0.78311787    -0.78400
C514        C  0.21373115  0.39575913  0.76740652     0.82300
N515        N  0.24085682  0.39382013  0.78307029    -0.78400
C516        C  0.24090965  0.39052812  0.81418881     0.82400
N517        N  0.21382423  0.38873850  0.82942015    -0.80100
C518        C  0.37101086  0.29864949  0.77680431     0.79900
N519        N  0.37345104  0.26742923  0.77699744    -0.78400
C520        C  0.37480034  0.25154566  0.75000063     0.82300
N521        N  0.37303853  0.26706281  0.72285650    -0.78400
C522        C  0.37117546  0.29824600  0.72264282     0.82400
N523        N  0.36976113  0.31379619  0.74956536    -0.80100
O524        O  0.38624920  0.41836254  0.87702108    -0.78800
C525        C  0.31368316  0.40441465  0.94447247     0.82200
O526        O  0.39594238  0.31303437  0.90213933    -0.79900
O527        O  0.28189129  0.31584396  0.90305328    -0.81400
O528        O  0.29535367  0.38604376  0.81771136    -0.81200
O529        O  0.36628141  0.41640121  0.82980418    -0.79800
Zn530      Zn  0.36558570  0.38519283  0.90150217     1.55700
O531        O  0.26695611  0.37624885  0.85938998    -0.81200
Cd532      Cd  0.33979133  0.37664594  0.83279523     1.59700
Cd533      Cd  0.35622533  0.31674379  0.87564457     1.59600
O534        O  0.35685568  0.34398643  0.80280449    -0.81200
O535        O  0.33974000  0.35982988  0.87579812    -1.91700
Cd536      Cd  0.29676704  0.36010119  0.89261308     1.59900
O537        O  0.36564582  0.30201377  0.83111552    -0.81200
O538        O  0.29340886  0.38751286  0.93170810    -0.79800
C539        C  0.40856249  0.33288524  0.91963390     0.82700
C540        C  0.38378710  0.42879128  0.84980119     0.82300
O541        O  0.34118469  0.40592592  0.93464959    -0.78800
C542        C  0.26942599  0.38444266  0.83131985     0.83200
O543        O  0.39850389  0.36025114  0.92198666    -0.78900
C544        C  0.36472633  0.31582328  0.80525003     0.83300
C545        C  0.29536310  0.28983598  0.90151265     0.83600
O546        O  0.32324217  0.28713709  0.89275855    -0.81300
C547        C  0.18676684  0.07625512  0.68582516     0.79900
N548        N  0.21382532  0.07743036  0.67036929    -0.78400
C549        C  0.24089803  0.07661035  0.68582878     0.82300
N550        N  0.24087602  0.07520930  0.71706432    -0.78400
C551        C  0.21383308  0.07362826  0.73276654     0.82400
N552        N  0.18680409  0.07487075  0.71704508    -0.80100
O553        O  0.29267102  0.16974171  0.62665694    -0.78800
C554        C  0.26915575  0.08415182  0.66927576     0.82200
O555        O  0.38504570  0.13705299  0.68180303    -0.79900
O556        O  0.35461398  0.03775323  0.64249019    -0.81400
O557        O  0.32172472  0.09403968  0.55281984    -0.81200
O558        O  0.31134295  0.16670359  0.57898479    -0.79800
Zn559      Zn  0.31277582  0.13618486  0.65127285     1.55700
O560        O  0.31231375  0.05234107  0.58133161    -0.81200
Cd561      Cd  0.33818235  0.12720896  0.58249111     1.59700
Cd562      Cd  0.38142321  0.11051051  0.64210012     1.59600
O563        O  0.38245675  0.13703067  0.56736617    -0.81200
O564        O  0.33832664  0.11053540  0.62556119    -1.91700
Cd565      Cd  0.32165813  0.06748225  0.62566978     1.59900
O566        O  0.41099083  0.12733975  0.60898159    -0.81200
O567        O  0.28193442  0.06406995  0.65216880    -0.79800
C568        C  0.36499481  0.15412293  0.69468589     0.82700
C569        C  0.29448639  0.17964395  0.59917406     0.82300
O570        O  0.27925309  0.11154171  0.67141005    -0.78800
C571        C  0.31372934  0.06592067  0.55539147     0.83200
O572        O  0.33755683  0.15621233  0.68471841    -0.78900
C573        C  0.40840471  0.13561895  0.58094039     0.83300
C574        C  0.38276762  0.04024888  0.65039378     0.83600
O575        O  0.39647442  0.06613797  0.65154031    -0.81300
C576        C  0.18710942  0.39306022  0.68616808     0.79900
N577        N  0.18684607  0.39520803  0.71742665    -0.78400
C578        C  0.21382108  0.39640402  0.73340859     0.82300
N579        N  0.24100850  0.39468717  0.71790012    -0.78400
C580        C  0.24128707  0.39314695  0.68668046     0.82400
N581        N  0.21438601  0.39192734  0.67109423    -0.80100
C582        C  0.27781034  0.26200144  0.59136679     0.79900
N583        N  0.24656447  0.26194549  0.59021992    -0.78400
C584        C  0.23086558  0.23488924  0.58900526     0.82300
N585        N  0.24662417  0.20787000  0.59045601    -0.78400
C586        C  0.27786640  0.20786719  0.59163797     0.82400
N587        N  0.29329435  0.23495297  0.59238502    -0.80100
O588        O  0.33668411  0.31268514  0.68404299    -0.78800
C589        C  0.26954855  0.38565460  0.67012394     0.82200
O590        O  0.31198783  0.30269452  0.57904112    -0.79900
O591        O  0.31142404  0.41693780  0.58126163    -0.81400
O592        O  0.39629410  0.40316196  0.65207401    -0.81200
O593        O  0.38416373  0.33198748  0.68187929    -0.79800
Zn594      Zn  0.31230525  0.33351220  0.65098050     1.55700
O595        O  0.35475866  0.43169340  0.64200832    -0.81200
Cd596      Cd  0.38119768  0.35882058  0.64237559     1.59700
Cd597      Cd  0.33838766  0.34250218  0.58247760     1.59600
O598        O  0.41128703  0.34201615  0.60971327    -0.81200
O599        O  0.33819081  0.35908179  0.62552354    -1.91700
Cd600      Cd  0.32149531  0.40208815  0.62564693     1.59900
O601        O  0.38295439  0.33313438  0.56778467    -0.81200
O602        O  0.28228416  0.40573125  0.65295715    -0.79800
C603        C  0.29435069  0.29024515  0.59887849     0.82700
C604        C  0.36399253  0.31471706  0.69430886     0.81500
O605        O  0.27933774  0.35814861  0.67183312    -0.78800
C606        C  0.38276182  0.42912341  0.65039947     0.83200
O607        O  0.29176439  0.30055577  0.62613183    -0.78900
C608        C  0.40883973  0.33415399  0.58155887     0.83300
C609        C  0.31281260  0.40336493  0.55529457     0.83600
O610        O  0.32129938  0.37538796  0.55269102    -0.81300
O611        O  0.03058656  0.36216285  0.57748143    -0.78800
C612        C  0.04414948  0.42917942  0.65012512     0.82200
O613        O  0.13599224  0.38703384  0.56807704    -0.79900
O614        O  0.13274591  0.38796677  0.68218625    -0.81400
O615        O  0.06254436  0.30250745  0.66847272    -0.81200
O616        O  0.03212857  0.31501347  0.59762952    -0.79800
Zn617      Zn  0.06376984  0.38643154  0.59824180     1.55700
O618        O  0.07239342  0.34407227  0.69700259    -0.81200
Cd619      Cd  0.07194732  0.31774396  0.62406859     1.59700
Cd620      Cd  0.13211113  0.36053353  0.60784032     1.59600
O621        O  0.10452616  0.28774222  0.60689927    -0.81200
O622        O  0.08895655  0.36066769  0.62419401    -1.91700
Cd623      Cd  0.08850696  0.37736041  0.66720766     1.59900
O624        O  0.14666540  0.31594244  0.59845633    -0.81200
O625        O  0.06083145  0.41628456  0.67050078    -0.79800
C626        C  0.11614097  0.40448579  0.55538332     0.82700
C627        C  0.01992213  0.33505589  0.58004498     0.82300
O628        O  0.04296982  0.41956356  0.62253828    -0.78800
C629        C  0.06417166  0.31601567  0.69444898     0.83200
O630        O  0.08876706  0.40682285  0.56539239    -0.78900
C631        C  0.13274234  0.29012631  0.59919657     0.83300
C632        C  0.15881311  0.38645338  0.66881345     0.83600
O633        O  0.16162304  0.37764449  0.64095636    -0.81300
O634        O  0.13546119  0.16907929  0.62748185    -0.78800
C635        C  0.06259812  0.15425507  0.69470813     0.82200
O636        O  0.14587488  0.06380435  0.65195324    -0.79900
O637        O  0.03136836  0.06590000  0.65211553    -0.81400
O638        O  0.04544780  0.13717560  0.56764896    -0.81200
O639        O  0.11673892  0.16652015  0.57979678    -0.79800
Zn640      Zn  0.11489800  0.13574200  0.65176369     1.55700
O641        O  0.01675445  0.12696641  0.60902165    -0.81200
Cd642      Cd  0.08966058  0.12717546  0.58290177     1.59700
Cd643      Cd  0.10594594  0.06722680  0.62578963     1.59600
O644        O  0.10607664  0.09415719  0.55305167    -0.81200
O645        O  0.08934560  0.11029323  0.62586731    -1.91700
Cd646      Cd  0.04625212  0.11031733  0.64232438     1.59900
O647        O  0.11507127  0.05223187  0.58135730    -0.81200
O648        O  0.04253142  0.13722915  0.68177542    -0.79800
C649        C  0.15847420  0.08373314  0.66937113     0.82700
C650        C  0.13371656  0.17916217  0.60008601     0.82300
O651        O  0.09012760  0.15607876  0.68496844    -0.78800
C652        C  0.01943614  0.13550605  0.58106419     0.83200
O653        O  0.14816367  0.11099010  0.67193272    -0.78900
C654        C  0.11384732  0.06596895  0.55548442     0.83300
C655        C  0.04505659  0.03998254  0.65104126     0.83600
O656        O  0.07314393  0.03744009  0.64292973    -0.81300
C657        C  0.12368577  0.92103103  0.02714746     0.79900
N658        N  0.12234154  0.90555828  0.50012300    -0.78400
C659        C  0.12253781  0.92097909  0.47303120     0.82300
N660        N  0.12351895  0.95223538  0.47299340    -0.78400
C661        C  0.12531654  0.96800655  0.99998475     0.82400
N662        N  0.12459257  0.95228889  0.02706047    -0.80100
C663        C  0.30776522  0.54864689  0.02697759     0.79900
N664        N  0.30488445  0.51747529  0.02709573    -0.78400
C665        C  0.30319122  0.50171285  0.00003112     0.82300
N666        N  0.30490071  0.51734179  0.47287479    -0.78400
C667        C  0.30777391  0.54849963  0.47277561     0.82400
N668        N  0.30940870  0.56379908  0.99983195    -0.80100
C669        C  0.39993345  0.51179194  0.15652157     0.79900
N670        N  0.38471246  0.98468634  0.15487823    -0.78400
C671        C  0.39993688  0.95758413  0.15652998     0.82300
N672        N  0.43109702  0.95759543  0.15943638    -0.78400
C673        C  0.44679637  0.98471129  0.16114112     0.82400
N674        N  0.43110230  0.51181887  0.15941775    -0.80100
C675        C  0.02791145  0.51136121  0.34210154     0.79900
N676        N  0.99667761  0.51163477  0.33968815    -0.78400
C677        C  0.48071381  0.98466970  0.33869606     0.82300
N678        N  0.99617098  0.95749600  0.34085746    -0.78400
C679        C  0.02735164  0.95719154  0.34271728     0.82400
N680        N  0.04297627  0.98408433  0.34370652    -0.80100
C681        C  0.43728083  0.82798580  0.06434052     0.79900
N682        N  0.43697873  0.82540215  0.03313997    -0.78400
C683        C  0.46391412  0.82405970  0.01717438     0.82300
N684        N  0.49111314  0.82596083  0.03257630    -0.78400
C685        C  0.49145368  0.82796238  0.06373859     0.82400
N686        N  0.46458281  0.82936880  0.07939658    -0.80100
C687        C  0.43677264  0.64109053  0.43601121     0.79900
N688        N  0.43680056  0.64426426  0.46716137    -0.78400
C689        C  0.46394329  0.64612743  0.48284076     0.82300
N690        N  0.49104623  0.64426266  0.46711505    -0.78400
C691        C  0.49099079  0.64108592  0.43596453     0.82400
N692        N  0.46386389  0.63930911  0.42080040    -0.80100
C693        C  0.30640389  0.92060982  0.02689255     0.79900
N694        N  0.30412235  0.95185581  0.02706128    -0.78400
C695        C  0.30287526  0.96774374  0.50003708     0.82300
N696        N  0.30465811  0.95218262  0.47290860    -0.78400
C697        C  0.30635858  0.92098330  0.47272716     0.82400
N698        N  0.30763937  0.90545964  0.49966561    -0.80100
C699        C  0.11975705  0.54870772  0.47279932     0.79900
N700        N  0.11806237  0.56398287  0.99987296    -0.78400
C701        C  0.11978575  0.54879603  0.02700170     0.82300
N702        N  0.12283078  0.51765106  0.02705028    -0.78400
C703        C  0.12456007  0.50193648  0.99996659     0.82400
N704        N  0.12277545  0.51757072  0.47283901    -0.80100
C705        C  0.39955675  0.51136363  0.34224536     0.79900
N706        N  0.43080086  0.51165725  0.33984282    -0.78400
C707        C  0.44676223  0.98468290  0.33868793     0.82300
N708        N  0.43130384  0.95752198  0.34065943    -0.78400
C709        C  0.40013230  0.95719152  0.34248463     0.82400
N710        N  0.38449274  0.98407519  0.34366824    -0.80100
C711        C  0.02785382  0.51156007  0.15740970     0.79900
N712        N  0.99663319  0.51170312  0.15991751    -0.78400
C713        C  0.48076925  0.98467391  0.16128321     0.82300
N714        N  0.99633730  0.95754273  0.15939205    -0.78400
C715        C  0.02753201  0.95740292  0.15744881     0.82400
N716        N  0.04301418  0.98435220  0.15604756    -0.80100
C717        C  0.43671207  0.82525383  0.43627773     0.79900
N718        N  0.43672379  0.82448998  0.46754348    -0.78400
C719        C  0.46376751  0.82338935  0.48327652     0.82300
N720        N  0.49078686  0.82461466  0.46753451    -0.78400
C721        C  0.49084415  0.82540200  0.43629746     0.82400
N722        N  0.46378446  0.82600913  0.42081961    -0.80100
C723        C  0.43683734  0.64185995  0.06374968     0.79900
N724        N  0.43684591  0.64468554  0.03257095    -0.78400
C725        C  0.46396683  0.64635405  0.01686589     0.82300
N726        N  0.49107917  0.64462130  0.03260557    -0.78400
C727        C  0.49104507  0.64179226  0.06379379     0.82400
N728        N  0.46392892  0.64022056  0.07898317    -0.80100
C729        C  0.14971202  0.76137110  0.40822520     0.79900
N730        N  0.13469026  0.73408881  0.40646318    -0.78400
C731        C  0.15033521  0.70720949  0.40738195     0.82300
N732        N  0.18150986  0.70754383  0.40934738    -0.78400
C733        C  0.19693979  0.73471635  0.41166730     0.82400
N734        N  0.18094638  0.76168293  0.41073495    -0.80100
C735        C  0.14986119  0.76164936  0.09294400     0.79900
N736        N  0.13468616  0.73442485  0.09422160    -0.78400
C737        C  0.15022002  0.70748353  0.09288819     0.82300
N738        N  0.18141039  0.70767328  0.09107882    -0.78400
C739        C  0.19694499  0.73480858  0.08929709     0.82400
N740        N  0.18107850  0.76181236  0.09056206    -0.80100
C741        C  0.05495191  0.67091054  0.22286306     0.79900
N742        N  0.05381403  0.70216934  0.22287641    -0.78400
C743        C  0.05248317  0.71791708  0.24990990     0.82300
N744        N  0.05384641  0.70216839  0.27696400    -0.78400
C745        C  0.05499947  0.67091140  0.27699145     0.82400
N746        N  0.05585432  0.65547708  0.24993210    -0.80100
O747        O  0.09022229  0.65594896  0.31485242    -0.78800
C748        C  0.13389504  0.67887704  0.39990422     0.82200
O749        O  0.14584163  0.56341315  0.34765333    -0.79900
O750        O  0.10610257  0.59397668  0.44663775    -0.81400
O751        O  0.01675133  0.62631286  0.39076421    -0.81200
O752        O  0.04256175  0.63725012  0.31809399    -0.79800
Zn753      Zn  0.11506855  0.63550721  0.34802417     1.55700
O754        O  0.04542832  0.63678687  0.43208530    -0.81200
Cd755      Cd  0.04631823  0.61005091  0.35734749     1.59700
Cd756      Cd  0.10596897  0.56691407  0.37391935     1.59600
O757        O  0.03153756  0.56569037  0.34720692    -0.81200
O758        O  0.08941971  0.61002042  0.37383097    -1.91700
Cd759      Cd  0.08965765  0.62691552  0.41679543     1.59900
O760        O  0.07319464  0.53715647  0.35670697    -0.81200
O761        O  0.11671111  0.66624551  0.42001778    -0.79800
C762        C  0.15839113  0.58329409  0.33013421     0.82700
C763        C  0.06265751  0.65423520  0.30515630     0.82300
O764        O  0.13582234  0.66881515  0.37249343    -0.78800
C765        C  0.01940695  0.63490320  0.41870534     0.83200
O766        O  0.14814998  0.61059119  0.32763718    -0.78900
C767        C  0.04517314  0.53974891  0.34839725     0.83300
C768        C  0.11383004  0.56578027  0.44426243     0.83600
O769        O  0.11502489  0.55197860  0.41842291    -0.81300
C770        C  0.37245842  0.67063213  0.27706825     0.79900
N771        N  0.37369915  0.70187881  0.27708512    -0.78400
C772        C  0.37511909  0.71761840  0.25006042     0.82300
N773        N  0.37381292  0.70189891  0.22300896    -0.78400
C774        C  0.37257890  0.67065956  0.22294102     0.82400
N775        N  0.37159104  0.65519840  0.24999247    -0.80100
C776        C  0.18664271  0.57575234  0.31360236     0.79900
N777        N  0.18671543  0.57465686  0.28235733    -0.78400
C778        C  0.21378418  0.57346855  0.26666934     0.82300
N779        N  0.24078641  0.57485949  0.28242805    -0.78400
C780        C  0.24077255  0.57596557  0.31366544     0.82400
N781        N  0.21368870  0.57669579  0.32909482    -0.80100
O782        O  0.29198840  0.66900050  0.37269571    -0.78800
C783        C  0.36478363  0.65402107  0.30522115     0.82200
O784        O  0.28161236  0.56358093  0.34760346    -0.79900
O785        O  0.39595262  0.56568169  0.34756154    -0.81400
O786        O  0.38231404  0.63665997  0.43225170    -0.81200
O787        O  0.31106361  0.66626812  0.42024230    -0.79800
Zn788      Zn  0.31243295  0.63563090  0.34819231     1.55700
O789        O  0.41087489  0.62646598  0.39081038    -0.81200
Cd790      Cd  0.33802657  0.62686945  0.41695193     1.59700
Cd791      Cd  0.32145801  0.56698931  0.37389250     1.59600
O792        O  0.32155574  0.59378988  0.44667394    -0.81200
O793        O  0.33808167  0.61008055  0.37395553    -1.91700
Cd794      Cd  0.38117871  0.61007222  0.35754227     1.59900
O795        O  0.31235707  0.55191152  0.41835700    -0.81200
O796        O  0.38485960  0.63703687  0.31817849    -0.79800
C797        C  0.26897021  0.58354321  0.33025569     0.82700
C798        C  0.29395101  0.67899747  0.40012097     0.82300
O799        O  0.33725164  0.65588399  0.31495820    -0.78800
C800        C  0.40830138  0.63491950  0.41879732     0.83200
O801        O  0.27915301  0.61087777  0.32789487    -0.78900
C802        C  0.31369329  0.56562469  0.44424104     0.83300
C803        C  0.38227945  0.53975238  0.34856974     0.83600
O804        O  0.35419286  0.53717417  0.35666905    -0.81300
C805        C  0.05780297  0.79864911  0.27714721     0.79900
N806        N  0.05475497  0.76750920  0.27706332    -0.78400
C807        C  0.05312417  0.75187896  0.24992640     0.82300
N808        N  0.05501826  0.76761772  0.22283890    -0.78400
C809        C  0.05808888  0.79877269  0.22291651     0.82400
N810        N  0.05966694  0.81393384  0.25006994    -0.80100
O811        O  0.08715151  0.90586998  0.43531412    -0.78800
C812        C  0.04379206  0.92884565  0.35015448     0.82200
O813        O  0.03172881  0.81318744  0.40232810    -0.79900
O814        O  0.07139701  0.84392150  0.30340004    -0.81400
O815        O  0.16084513  0.87611586  0.35951079    -0.81200
O816        O  0.13484339  0.88726875  0.43202165    -0.79800
Zn817      Zn  0.06236707  0.88538190  0.40204191     1.55700
O818        O  0.13225708  0.88646062  0.31809274    -0.81200
Cd819      Cd  0.13115765  0.85999993  0.39288964     1.59700
Cd820      Cd  0.07162076  0.81678460  0.37612253     1.59600
O821        O  0.14597520  0.81571458  0.40325045    -0.81200
O822        O  0.08809547  0.85992516  0.37627976    -1.91700
Cd823      Cd  0.08795388  0.87681136  0.33329940     1.59900
O824        O  0.10445579  0.78709641  0.39339524    -0.81200
O825        O  0.06108419  0.91629298  0.33008593    -0.79800
C826        C  0.01905044  0.83305938  0.41974858     0.82700
C827        C  0.11474239  0.90421307  0.44497180     0.82300
O828        O  0.04170307  0.91867336  0.37751272    -0.78800
C829        C  0.15824912  0.88457660  0.33152264     0.83200
O830        O  0.02920272  0.86039754  0.42223886    -0.78900
C831        C  0.13241807  0.78974347  0.40190971     0.83300
C832        C  0.06369660  0.81570762  0.30573041     0.83600
O833        O  0.06255272  0.80186785  0.33156759    -0.81300
C834        C  0.27808345  0.76149109  0.40798535     0.79900
N835        N  0.29314711  0.73421914  0.40641669    -0.78400
C836        C  0.27754726  0.70732818  0.40759523     0.82300
N837        N  0.24638046  0.70761164  0.40956635    -0.78400
C838        C  0.23090431  0.73477179  0.41167964     0.82400
N839        N  0.24685134  0.76175764  0.41053231    -0.80100
C840        C  0.18669471  0.89061814  0.31426466     0.79900
N841        N  0.18661996  0.89390371  0.28311768    -0.78400
C842        C  0.21373097  0.89575911  0.26740659     0.82300
N843        N  0.24085681  0.89382012  0.28307021    -0.78400
C844        C  0.24090957  0.89052795  0.31418892     0.82400
N845        N  0.21382439  0.88873854  0.32942004    -0.80100
C846        C  0.37101078  0.79864948  0.27680467     0.79900
N847        N  0.37345100  0.76742937  0.27699728    -0.78400
C848        C  0.37480037  0.75154565  0.25000107     0.82300
N849        N  0.37303854  0.76706269  0.22285644    -0.78400
C850        C  0.37117543  0.79824643  0.22264265     0.82400
N851        N  0.36976119  0.81379604  0.24956503    -0.80100
O852        O  0.38624930  0.91836264  0.37702120    -0.78800
C853        C  0.31368312  0.90441483  0.44447281     0.82200
O854        O  0.39594246  0.81303439  0.40213925    -0.79900
O855        O  0.28189138  0.81584394  0.40305342    -0.81400
O856        O  0.29535363  0.88604364  0.31771147    -0.81200
O857        O  0.36628135  0.91640121  0.32980410    -0.79800
Zn858      Zn  0.36558571  0.88519285  0.40150219     1.55700
O859        O  0.26695617  0.87624882  0.35938993    -0.81200
Cd860      Cd  0.33979135  0.87664594  0.33279534     1.59700
Cd861      Cd  0.35622534  0.81674381  0.37564457     1.59600
O862        O  0.35685567  0.84398666  0.30280458    -0.81200
O863        O  0.33974000  0.85982989  0.37579819    -1.91700
Cd864      Cd  0.29676705  0.86010120  0.39261321     1.59900
O865        O  0.36564567  0.80201393  0.33111548    -0.81200
O866        O  0.29340883  0.88751276  0.43170802    -0.79800
C867        C  0.40856242  0.83288535  0.41963371     0.82700
C868        C  0.38378689  0.92879125  0.34980129     0.82300
O869        O  0.34118475  0.90592584  0.43464956    -0.78800
C870        C  0.26942598  0.88444277  0.33131987     0.83200
O871        O  0.39850394  0.86025115  0.42198672    -0.78900
C872        C  0.36472641  0.81582308  0.30524986     0.83300
C873        C  0.29536314  0.78983624  0.40151270     0.83600
O874        O  0.32324218  0.78713707  0.39275864    -0.81300
C875        C  0.18676672  0.57625512  0.18582509     0.79900
N876        N  0.21382538  0.57743037  0.17036953    -0.78400
C877        C  0.24089821  0.57661041  0.18582874     0.82300
N878        N  0.24087622  0.57520934  0.21706433    -0.78400
C879        C  0.21383253  0.57362818  0.23276671     0.82400
N880        N  0.18680436  0.57487077  0.21704510    -0.80100
O881        O  0.29267097  0.66974184  0.12665699    -0.78800
C882        C  0.26915561  0.58415177  0.16927569     0.82200
O883        O  0.38504561  0.63705313  0.18180313    -0.79900
O884        O  0.35461392  0.53775320  0.14249017    -0.81400
O885        O  0.32172483  0.59403991  0.05281999    -0.81200
O886        O  0.31134297  0.66670370  0.07898483    -0.79800
Zn887      Zn  0.31277584  0.63618486  0.15127286     1.55700
O888        O  0.31231382  0.55234124  0.08133159    -0.81200
Cd889      Cd  0.33818237  0.62720898  0.08249119     1.59700
Cd890      Cd  0.38142326  0.61051054  0.14210018     1.59600
O891        O  0.38245682  0.63703070  0.06736622    -0.81200
O892        O  0.33832667  0.61053540  0.12556123    -1.91700
Cd893      Cd  0.32165814  0.56748230  0.12566977     1.59900
O894        O  0.41099093  0.62733976  0.10898177    -0.81200
O895        O  0.28193447  0.56407002  0.15216879    -0.79800
C896        C  0.36499512  0.65412273  0.19468574     0.82700
C897        C  0.29448642  0.67964373  0.09917395     0.82300
O898        O  0.27925318  0.61154180  0.17141012    -0.78800
C899        C  0.31372924  0.56592022  0.05539144     0.83200
O900        O  0.33755649  0.65621246  0.18471835    -0.78900
C901        C  0.40840454  0.63561896  0.08094036     0.83300
C902        C  0.38276785  0.54024904  0.15039377     0.83600
O903        O  0.39647433  0.56613801  0.15154047    -0.81300
C904        C  0.18710953  0.89306012  0.18616789     0.79900
N905        N  0.18684594  0.89520805  0.21742675    -0.78400
C906        C  0.21382135  0.89640396  0.23340848     0.82300
N907        N  0.24100850  0.89468721  0.21790012    -0.78400
C908        C  0.24128706  0.89314694  0.18668027     0.82400
N909        N  0.21438613  0.89192737  0.17109428    -0.80100
C910        C  0.27781040  0.76200116  0.09136680     0.79900
N911        N  0.24656423  0.76194558  0.09021987    -0.78400
C912        C  0.23086570  0.73488930  0.08900524     0.82300
N913        N  0.24662424  0.70786992  0.09045605    -0.78400
C914        C  0.27786633  0.70786741  0.09163800     0.82400
N915        N  0.29329435  0.73495304  0.09238495    -0.80100
O916        O  0.33668417  0.81268517  0.18404288    -0.78800
C917        C  0.26954842  0.88565478  0.17012402     0.82200
O918        O  0.31198780  0.80269456  0.07904123    -0.79900
O919        O  0.31142407  0.91693774  0.08126150    -0.81400
O920        O  0.39629406  0.90316206  0.15207395    -0.81200
O921        O  0.38416382  0.83198761  0.18187919    -0.79800
Zn922      Zn  0.31230527  0.83351221  0.15098046     1.55700
O923        O  0.35475878  0.93169335  0.14200839    -0.81200
Cd924      Cd  0.38119770  0.85882058  0.14237554     1.59700
Cd925      Cd  0.33838769  0.84250220  0.08247751     1.59600
O926        O  0.41128707  0.84201619  0.10971329    -0.81200
O927        O  0.33819084  0.85908180  0.12552350    -1.91700
Cd928      Cd  0.32149534  0.90208819  0.12564687     1.59900
O929        O  0.38295443  0.83313443  0.06778467    -0.81200
O930        O  0.28228421  0.90573121  0.15295718    -0.79800
C931        C  0.29435070  0.79024517  0.09887831     0.82700
C932        C  0.36399251  0.81471679  0.19430897     0.81500
O933        O  0.27933783  0.85814851  0.17183305    -0.78800
C934        C  0.38276187  0.92912323  0.15039941     0.83200
O935        O  0.29176441  0.80055576  0.12613178    -0.78900
C936        C  0.40883969  0.83415402  0.08155875     0.83300
C937        C  0.31281256  0.90336513  0.05529473     0.83600
O938        O  0.32129940  0.87538791  0.05269093    -0.81300
O939        O  0.03058658  0.86216293  0.07748147    -0.78800
C940        C  0.04414928  0.92917956  0.15012485     0.82200
O941        O  0.13599216  0.88703382  0.06807703    -0.79900
O942        O  0.13274593  0.88796679  0.18218622    -0.81400
O943        O  0.06254441  0.80250763  0.16847266    -0.81200
O944        O  0.03212868  0.81501345  0.09762953    -0.79800
Zn945      Zn  0.06376985  0.88643154  0.09824187     1.55700
O946        O  0.07239353  0.84407248  0.19700250    -0.81200
Cd947      Cd  0.07194733  0.81774395  0.12406856     1.59700
Cd948      Cd  0.13211104  0.86053346  0.10784033     1.59600
O949        O  0.10452615  0.78774226  0.10689937    -0.81200
O950        O  0.08895652  0.86066768  0.12419407    -1.91700
Cd951      Cd  0.08850693  0.87736046  0.16720779     1.59900
O952        O  0.14666538  0.81594244  0.09845626    -0.81200
O953        O  0.06083163  0.91628439  0.17050114    -0.79800
C954        C  0.11614114  0.90448592  0.05538324     0.82700
C955        C  0.01992197  0.83505586  0.08004491     0.82300
O956        O  0.04296993  0.91956360  0.12253862    -0.78800
C957        C  0.06417159  0.81601536  0.19444930     0.83200
O958        O  0.08876689  0.90682292  0.06539254    -0.78900
C959        C  0.13274235  0.79012615  0.09919654     0.83300
C960        C  0.15881319  0.88645349  0.16881377     0.83600
O961        O  0.16162293  0.87764423  0.14095615    -0.81300
O962        O  0.13546123  0.66907919  0.12748188    -0.78800
C963        C  0.06259815  0.65425514  0.19470823     0.82200
O964        O  0.14587488  0.56380436  0.15195317    -0.79900
O965        O  0.03136837  0.56590009  0.15211555    -0.81400
O966        O  0.04544779  0.63717569  0.06764894    -0.81200
O967        O  0.11673901  0.66652010  0.07979702    -0.79800
Zn968      Zn  0.11489804  0.63574204  0.15176377     1.55700
O969        O  0.01675450  0.62696643  0.10902161    -0.81200
Cd970      Cd  0.08966059  0.62717549  0.08290181     1.59700
Cd971      Cd  0.10594598  0.56722683  0.12578959     1.59600
O972        O  0.10607649  0.59415740  0.05305161    -0.81200
O973        O  0.08934563  0.61029325  0.12586736    -1.91700
Cd974      Cd  0.04625214  0.61031738  0.14232434     1.59900
O975        O  0.11507132  0.55223189  0.08135728    -0.81200
O976        O  0.04253140  0.63722914  0.18177533    -0.79800
C977        C  0.15847426  0.58373318  0.16937132     0.82700
C978        C  0.13371654  0.67916232  0.10008588     0.82300
O979        O  0.09012765  0.65607879  0.18496844    -0.78800
C980        C  0.01943618  0.63550593  0.08106411     0.83200
O981        O  0.14816364  0.61099010  0.17193286    -0.78900
C982        C  0.11384744  0.56596857  0.05548456     0.83300
C983        C  0.04505673  0.53998221  0.15104116     0.83600
O984        O  0.07314397  0.53744022  0.14292963    -0.81300
C985        C  0.12368585  0.92103096  0.52714726     0.79900
N986        N  0.12234146  0.90555823  0.00012295    -0.78400
C987        C  0.12253784  0.92097906  0.97303132     0.82300
N988        N  0.12351877  0.95223528  0.97299278    -0.78400
C989        C  0.12531645  0.96800657  0.49998354     0.82400
N990        N  0.12459263  0.95228880  0.52706095    -0.80100
C991        C  0.30776513  0.54864638  0.52697781     0.79900
N992        N  0.30488449  0.51747564  0.52709558    -0.78400
C993        C  0.30319129  0.50171240  0.50003145     0.82300
N994        N  0.30490064  0.51734139  0.97287501    -0.78400
C995        C  0.30777404  0.54850030  0.97277573     0.82400
N996        N  0.30940869  0.56379932  0.49983183    -0.80100
C997        C  0.39993400  0.51179217  0.65652157     0.79900
N998        N  0.38471273  0.98468626  0.65487826    -0.78400
C999        C  0.39993642  0.95758399  0.65652986     0.82300
N1000       N  0.43109738  0.95759536  0.65943633    -0.78400
C1001       C  0.44679590  0.98471172  0.66114098     0.82400
N1002       N  0.43110180  0.51181898  0.65941762    -0.80100
C1003       C  0.02791125  0.51136122  0.84210151     0.79900
N1004       N  0.99667756  0.51163463  0.83968810    -0.78400
C1005       C  0.48071372  0.98466951  0.83869605     0.82300
N1006       N  0.99617142  0.95749583  0.84085746    -0.78400
C1007       C  0.02735110  0.95719158  0.84271714     0.82400
N1008       N  0.04297645  0.98408439  0.84370643    -0.80100
C1009       C  0.43728026  0.82798570  0.56434043     0.79900
N1010       N  0.43697913  0.82540225  0.53313987    -0.78400
C1011       C  0.46391331  0.82405963  0.51717443     0.82300
N1012       N  0.49111333  0.82596097  0.53257648    -0.78400
C1013       C  0.49145388  0.82796230  0.56373842     0.82400
N1014       N  0.46458287  0.82936892  0.57939655    -0.80100
C1015       C  0.43677210  0.64109052  0.93601113     0.79900
N1016       N  0.43680082  0.64426431  0.96716158    -0.78400
C1017       C  0.46394288  0.64612739  0.98284069     0.82300
N1018       N  0.49104638  0.64426268  0.96711501    -0.78400
C1019       C  0.49099041  0.64108592  0.93596469     0.82400
N1020       N  0.46386445  0.63930922  0.92080036    -0.80100
C1021       C  0.30640388  0.92060983  0.52689238     0.79900
N1022       N  0.30412242  0.95185591  0.52706148    -0.78400
C1023       C  0.30287530  0.96774431  0.00003731     0.82300
N1024       N  0.30465809  0.95218257  0.97290847    -0.78400
C1025       C  0.30635862  0.92098321  0.97272734     0.82400
N1026       N  0.30763934  0.90545969  0.99966535    -0.80100
C1027       C  0.11975715  0.54870764  0.97279861     0.79900
N1028       N  0.11806243  0.56398292  0.49987230    -0.78400
C1029       C  0.11978571  0.54879570  0.52700259     0.82300
N1030       N  0.12283088  0.51765110  0.52704967    -0.78400
C1031       C  0.12455999  0.50193598  0.49996771     0.82400
N1032       N  0.12277547  0.51757058  0.97283946    -0.80100
C1033       C  0.39955689  0.51136340  0.84224535     0.79900
N1034       N  0.43080072  0.51165732  0.83984286    -0.78400
C1035       C  0.44676192  0.98468288  0.83868791     0.82300
N1036       N  0.43130383  0.95752196  0.84065945    -0.78400
C1037       C  0.40013220  0.95719148  0.84248465     0.82400
N1038       N  0.38449284  0.98407501  0.84366824    -0.80100
C1039       C  0.02785417  0.51156006  0.65740972     0.79900
N1040       N  0.99663286  0.51170317  0.65991750    -0.78400
C1041       C  0.48076978  0.98467325  0.66128314     0.82300
N1042       N  0.99633728  0.95754280  0.65939189    -0.78400
C1043       C  0.02753180  0.95740294  0.65744877     0.82400
N1044       N  0.04301426  0.98435208  0.65604750    -0.80100
C1045       C  0.43671182  0.82525376  0.93627772     0.79900
N1046       N  0.43672409  0.82448995  0.96754341    -0.78400
C1047       C  0.46376677  0.82338936  0.98327651     0.82300
N1048       N  0.49078705  0.82461460  0.96753452    -0.78400
C1049       C  0.49084428  0.82540202  0.93629739     0.82400
N1050       N  0.46378445  0.82600907  0.92081961    -0.80100
C1051       C  0.43683678  0.64185994  0.56374997     0.79900
N1052       N  0.43684623  0.64468566  0.53257072    -0.78400
C1053       C  0.46396640  0.64635409  0.51686616     0.82300
N1054       N  0.49107926  0.64462135  0.53260542    -0.78400
C1055       C  0.49104495  0.64179230  0.56379392     0.82400
N1056       N  0.46392905  0.64022065  0.57898310    -0.80100
C1057       C  0.14971214  0.76137116  0.90822527     0.79900
N1058       N  0.13469032  0.73408869  0.90646326    -0.78400
C1059       C  0.15033489  0.70720959  0.90738196     0.82300
N1060       N  0.18151000  0.70754382  0.90934741    -0.78400
C1061       C  0.19693992  0.73471644  0.91166726     0.82400
N1062       N  0.18094631  0.76168271  0.91073498    -0.80100
C1063       C  0.14986157  0.76164938  0.59294397     0.79900
N1064       N  0.13468620  0.73442467  0.59422145    -0.78400
C1065       C  0.15022011  0.70748385  0.59288818     0.82300
N1066       N  0.18141022  0.70767311  0.59107880    -0.78400
C1067       C  0.19694535  0.73480836  0.58929714     0.82400
N1068       N  0.18107802  0.76181271  0.59056203    -0.80100
C1069       C  0.05495227  0.67091033  0.72286304     0.79900
N1070       N  0.05381401  0.70216952  0.72287643    -0.78400
C1071       C  0.05248322  0.71791707  0.74990986     0.82300
N1072       N  0.05384636  0.70216823  0.77696410    -0.78400
C1073       C  0.05499956  0.67091170  0.77699158     0.82400
N1074       N  0.05585430  0.65547702  0.74993199    -0.80100
O1075       O  0.09022203  0.65594894  0.81485244    -0.78800
C1076       C  0.13389499  0.67887686  0.89990437     0.82200
O1077       O  0.14584180  0.56341344  0.84765308    -0.79900
O1078       O  0.10610261  0.59397676  0.94663770    -0.81400
O1079       O  0.01675131  0.62631297  0.89076435    -0.81200
O1080       O  0.04256159  0.63724989  0.81809412    -0.79800
Zn1081     Zn  0.11506865  0.63550722  0.84802418     1.55700
O1082       O  0.04542846  0.63678676  0.93208554    -0.81200
Cd1083     Cd  0.04631828  0.61005101  0.85734736     1.59700
Cd1084     Cd  0.10596889  0.56691410  0.87391926     1.59600
O1085       O  0.03153762  0.56569042  0.84720681    -0.81200
O1086       O  0.08941971  0.61002045  0.87383095    -1.91700
Cd1087     Cd  0.08965757  0.62691549  0.91679549     1.59900
O1088       O  0.07319444  0.53715665  0.85670689    -0.81200
O1089       O  0.11671110  0.66624559  0.92001754    -0.79800
C1090       C  0.15839091  0.58329376  0.83013448     0.82700
C1091       C  0.06265788  0.65423551  0.80515603     0.82300
O1092       O  0.13582236  0.66881501  0.87249355    -0.78800
C1093       C  0.01940693  0.63490328  0.91870496     0.83200
O1094       O  0.14814993  0.61059146  0.82763710    -0.78900
C1095       C  0.04517334  0.53974879  0.84839714     0.83300
C1096       C  0.11383007  0.56578039  0.94426251     0.83600
O1097       O  0.11502478  0.55197878  0.91842304    -0.81300
C1098       C  0.37245863  0.67063211  0.77706827     0.79900
N1099       N  0.37369918  0.70187909  0.77708487    -0.78400
C1100       C  0.37511917  0.71761831  0.75006115     0.82300
N1101       N  0.37381294  0.70189850  0.72300867    -0.78400
C1102       C  0.37257901  0.67065966  0.72294098     0.82400
N1103       N  0.37159106  0.65519837  0.74999240    -0.80100
C1104       C  0.18664276  0.57575236  0.81360264     0.79900
N1105       N  0.18671528  0.57465690  0.78235707    -0.78400
C1106       C  0.21378452  0.57346860  0.76666961     0.82300
N1107       N  0.24078625  0.57485957  0.78242823    -0.78400
C1108       C  0.24077280  0.57596559  0.81366531     0.82400
N1109       N  0.21368844  0.57669582  0.82909470    -0.80100
O1110       O  0.29198845  0.66900038  0.87269554    -0.78800
C1111       C  0.36478344  0.65402114  0.80522134     0.82200
O1112       O  0.28161245  0.56358070  0.84760363    -0.79900
O1113       O  0.39595252  0.56568146  0.84756162    -0.81400
O1114       O  0.38231377  0.63665993  0.93225180    -0.81200
O1115       O  0.31106364  0.66626806  0.92024212    -0.79800
Zn1116     Zn  0.31243293  0.63563096  0.84819235     1.55700
O1117       O  0.41087473  0.62646605  0.89081053    -0.81200
Cd1118     Cd  0.33802667  0.62686944  0.91695198     1.59700
Cd1119     Cd  0.32145807  0.56698925  0.87389253     1.59600
O1120       O  0.32155583  0.59378985  0.94667395    -0.81200
O1121       O  0.33808172  0.61008053  0.87395557    -1.91700
Cd1122     Cd  0.38117880  0.61007218  0.85754230     1.59900
O1123       O  0.31235717  0.55191163  0.91835696    -0.81200
O1124       O  0.38485953  0.63703696  0.81817850    -0.79800
C1125       C  0.26897016  0.58354355  0.83025541     0.82700
C1126       C  0.29395096  0.67899773  0.90012130     0.82300
O1127       O  0.33725196  0.65588396  0.81495818    -0.78800
C1128       C  0.40830192  0.63491953  0.91879731     0.83200
O1129       O  0.27915293  0.61087775  0.82789497    -0.78900
C1130       C  0.31369322  0.56562432  0.94424125     0.83300
C1131       C  0.38227962  0.53975251  0.84856977     0.83600
O1132       O  0.35419291  0.53717412  0.85666913    -0.81300
C1133       C  0.05780298  0.79864870  0.77714713     0.79900
N1134       N  0.05475508  0.76750941  0.77706334    -0.78400
C1135       C  0.05312406  0.75187860  0.74992666     0.82300
N1136       N  0.05501825  0.76761788  0.72283877    -0.78400
C1137       C  0.05808872  0.79877264  0.72291661     0.82400
N1138       N  0.05966701  0.81393380  0.75006989    -0.80100
O1139       O  0.08715107  0.90586996  0.93531392    -0.78800
C1140       C  0.04379201  0.92884559  0.85015462     0.82200
O1141       O  0.03172891  0.81318718  0.90232798    -0.79900
O1142       O  0.07139714  0.84392145  0.80339992    -0.81400
O1143       O  0.16084525  0.87611590  0.85951071    -0.81200
O1144       O  0.13484332  0.88726871  0.93202167    -0.79800
Zn1145     Zn  0.06236707  0.88538185  0.90204184     1.55700
O1146       O  0.13225729  0.88646056  0.81809268    -0.81200
Cd1147     Cd  0.13115758  0.85999995  0.89288955     1.59700
Cd1148     Cd  0.07162080  0.81678453  0.87612251     1.59600
O1149       O  0.14597511  0.81571455  0.90325046    -0.81200
O1150       O  0.08809545  0.85992511  0.87627969    -1.91700
Cd1151     Cd  0.08795393  0.87681130  0.83329931     1.59900
O1152       O  0.10445593  0.78709644  0.89339536    -0.81200
O1153       O  0.06108425  0.91629294  0.83008586    -0.79800
C1154       C  0.01905044  0.83305944  0.91974864     0.82700
C1155       C  0.11474267  0.90421306  0.94497184     0.82300
O1156       O  0.04170310  0.91867346  0.87751234    -0.78800
C1157       C  0.15824882  0.88457647  0.83152290     0.83200
O1158       O  0.02920263  0.86039736  0.92223884    -0.78900
C1159       C  0.13241797  0.78974332  0.90190954     0.83300
C1160       C  0.06369671  0.81570758  0.80573039     0.83600
O1161       O  0.06255281  0.80186774  0.83156765    -0.81300
C1162       C  0.27808349  0.76149140  0.90798518     0.79900
N1163       N  0.29314729  0.73421951  0.90641670    -0.78400
C1164       C  0.27754716  0.70732747  0.90759517     0.82300
N1165       N  0.24638061  0.70761175  0.90956643    -0.78400
C1166       C  0.23090428  0.73477173  0.91167956     0.82400
N1167       N  0.24685124  0.76175734  0.91053233    -0.80100
C1168       C  0.18669518  0.89061810  0.81426445     0.79900
N1169       N  0.18661961  0.89390368  0.78311785    -0.78400
C1170       C  0.21373208  0.89575906  0.76740657     0.82300
N1171       N  0.24085639  0.89382022  0.78307026    -0.78400
C1172       C  0.24091015  0.89052807  0.81418857     0.82400
N1173       N  0.21382385  0.88873855  0.82942023    -0.80100
C1174       C  0.37101079  0.79864944  0.77680437     0.79900
N1175       N  0.37345110  0.76742920  0.77699752    -0.78400
C1176       C  0.37480034  0.75154573  0.75000055     0.82300
N1177       N  0.37303863  0.76706302  0.72285649    -0.78400
C1178       C  0.37117541  0.79824586  0.72264280     0.82400
N1179       N  0.36976119  0.81379623  0.74956534    -0.80100
O1180       O  0.38624923  0.91836257  0.87702109    -0.78800
C1181       C  0.31368292  0.90441467  0.94447241     0.82200
O1182       O  0.39594232  0.81303439  0.90213932    -0.79900
O1183       O  0.28189123  0.81584403  0.90305330    -0.81400
O1184       O  0.29535373  0.88604380  0.81771134    -0.81200
O1185       O  0.36628141  0.91640137  0.82980417    -0.79800
Zn1186     Zn  0.36558578  0.88519282  0.90150216     1.55700
O1187       O  0.26695618  0.87624881  0.85938994    -0.81200
Cd1188     Cd  0.33979138  0.87664596  0.83279521     1.59700
Cd1189     Cd  0.35622524  0.81674376  0.87564457     1.59600
O1190       O  0.35685570  0.84398655  0.80280448    -0.81200
O1191       O  0.33974005  0.85982988  0.87579813    -1.91700
Cd1192     Cd  0.29676710  0.86010113  0.89261307     1.59900
O1193       O  0.36564573  0.80201370  0.83111554    -0.81200
O1194       O  0.29340919  0.88751298  0.93170808    -0.79800
C1195       C  0.40856268  0.83288532  0.91963388     0.82700
C1196       C  0.38378698  0.92879121  0.84980117     0.82300
O1197       O  0.34118476  0.90592586  0.93464959    -0.78800
C1198       C  0.26942599  0.88444269  0.83131990     0.83200
O1199       O  0.39850387  0.86025119  0.92198665    -0.78900
C1200       C  0.36472632  0.81582336  0.80524997     0.83300
C1201       C  0.29536300  0.78983595  0.90151269     0.83600
O1202       O  0.32324240  0.78713704  0.89275850    -0.81300
C1203       C  0.18676692  0.57625487  0.68582504     0.79900
N1204       N  0.21382543  0.57743044  0.67036928    -0.78400
C1205       C  0.24089772  0.57661034  0.68582898     0.82300
N1206       N  0.24087634  0.57520942  0.71706418    -0.78400
C1207       C  0.21383231  0.57362821  0.73276646     0.82400
N1208       N  0.18680439  0.57487082  0.71704527    -0.80100
O1209       O  0.29267108  0.66974175  0.62665706    -0.78800
C1210       C  0.26915588  0.58415182  0.66927561     0.82200
O1211       O  0.38504550  0.63705304  0.68180311    -0.79900
O1212       O  0.35461399  0.53775313  0.64249023    -0.81400
O1213       O  0.32172477  0.59403959  0.55281989    -0.81200
O1214       O  0.31134296  0.66670354  0.57898481    -0.79800
Zn1215     Zn  0.31277589  0.63618483  0.65127287     1.55700
O1216       O  0.31231379  0.55234098  0.58133176    -0.81200
Cd1217     Cd  0.33818241  0.62720893  0.58249111     1.59700
Cd1218     Cd  0.38142321  0.61051045  0.64210011     1.59600
O1219       O  0.38245663  0.63703072  0.56736613    -0.81200
O1220       O  0.33832665  0.61053534  0.62556120    -1.91700
Cd1221     Cd  0.32165817  0.56748219  0.62566977     1.59900
O1222       O  0.41099072  0.62733970  0.60898152    -0.81200
O1223       O  0.28193436  0.56407016  0.65216889    -0.79800
C1224       C  0.36499516  0.65412281  0.69468587     0.82700
C1225       C  0.29448648  0.67964402  0.59917395     0.82300
O1226       O  0.27925312  0.61154170  0.67141001    -0.78800
C1227       C  0.31372933  0.56592072  0.55539122     0.83200
O1228       O  0.33755656  0.65621231  0.68471834    -0.78900
C1229       C  0.40840490  0.63561914  0.58094034     0.83300
C1230       C  0.38276744  0.54024896  0.65039369     0.83600
O1231       O  0.39647435  0.56613790  0.65154031    -0.81300
C1232       C  0.18710909  0.89306030  0.68616832     0.79900
N1233       N  0.18684637  0.89520800  0.71742650    -0.78400
C1234       C  0.21382026  0.89640409  0.73340868     0.82300
N1235       N  0.24100892  0.89468715  0.71790006    -0.78400
C1236       C  0.24128685  0.89314710  0.68668045     0.82400
N1237       N  0.21438618  0.89192732  0.67109418    -0.80100
C1238       C  0.27781061  0.76200123  0.59136674     0.79900
N1239       N  0.24656421  0.76194540  0.59021991    -0.78400
C1240       C  0.23086546  0.73488949  0.58900525     0.82300
N1241       N  0.24662444  0.70786996  0.59045600    -0.78400
C1242       C  0.27786605  0.70786716  0.59163799     0.82400
N1243       N  0.29329461  0.73495310  0.59238501    -0.80100
O1244       O  0.33668445  0.81268514  0.68404311    -0.78800
C1245       C  0.26954851  0.88565487  0.67012390     0.82200
O1246       O  0.31198799  0.80269462  0.57904104    -0.79900
O1247       O  0.31142397  0.91693770  0.58126152    -0.81400
O1248       O  0.39629416  0.90316190  0.65207397    -0.81200
O1249       O  0.38416382  0.83198760  0.68187931    -0.79800
Zn1250     Zn  0.31230518  0.83351219  0.65098051     1.55700
O1251       O  0.35475855  0.93169339  0.64200830    -0.81200
Cd1252     Cd  0.38119773  0.85882054  0.64237560     1.59700
Cd1253     Cd  0.33838761  0.84250213  0.58247760     1.59600
O1254       O  0.41128692  0.84201605  0.60971309    -0.81200
O1255       O  0.33819082  0.85908174  0.62552355    -1.91700
Cd1256     Cd  0.32149527  0.90208810  0.62564693     1.59900
O1257       O  0.38295438  0.83313447  0.56778469    -0.81200
O1258       O  0.28228412  0.90573125  0.65295717    -0.79800
C1259       C  0.29435050  0.79024504  0.59887858     0.82700
C1260       C  0.36399230  0.81471700  0.69430873     0.81500
O1261       O  0.27933784  0.85814834  0.67183313    -0.78800
C1262       C  0.38276205  0.92912330  0.65039951     0.83200
O1263       O  0.29176447  0.80055585  0.62613178    -0.78900
C1264       C  0.40883998  0.83415404  0.58155917     0.83300
C1265       C  0.31281253  0.90336494  0.55529482     0.83600
O1266       O  0.32129938  0.87538804  0.55269103    -0.81300
O1267       O  0.03058662  0.86216319  0.57748137    -0.78800
C1268       C  0.04414951  0.92917934  0.65012512     0.82200
O1269       O  0.13599220  0.88703386  0.56807694    -0.79900
O1270       O  0.13274577  0.88796685  0.68218628    -0.81400
O1271       O  0.06254431  0.80250742  0.66847277    -0.81200
O1272       O  0.03212850  0.81501372  0.59762938    -0.79800
Zn1273     Zn  0.06376986  0.88643149  0.59824180     1.55700
O1274       O  0.07239331  0.84407222  0.69700265    -0.81200
Cd1275     Cd  0.07194739  0.81774386  0.62406860     1.59700
Cd1276     Cd  0.13211106  0.86053348  0.60784034     1.59600
O1277       O  0.10452608  0.78774222  0.60689928    -0.81200
O1278       O  0.08895654  0.86066765  0.62419402    -1.91700
Cd1279     Cd  0.08850689  0.87736038  0.66720766     1.59900
O1280       O  0.14666539  0.81594249  0.59845632    -0.81200
O1281       O  0.06083136  0.91628446  0.67050077    -0.79800
C1282       C  0.11614087  0.90448583  0.55538335     0.82700
C1283       C  0.01992223  0.83505547  0.58004505     0.82300
O1284       O  0.04296983  0.91956352  0.62253825    -0.78800
C1285       C  0.06417180  0.81601560  0.69444883     0.83200
O1286       O  0.08876700  0.90682283  0.56539245    -0.78900
C1287       C  0.13274239  0.79012587  0.59919654     0.83300
C1288       C  0.15881343  0.88645328  0.66881334     0.83600
O1289       O  0.16162298  0.87764444  0.64095631    -0.81300
O1290       O  0.13546132  0.66907927  0.62748185    -0.78800
C1291       C  0.06259776  0.65425491  0.69470822     0.82200
O1292       O  0.14587502  0.56380416  0.65195323    -0.79900
O1293       O  0.03136840  0.56590011  0.65211549    -0.81400
O1294       O  0.04544780  0.63717560  0.56764887    -0.81200
O1295       O  0.11673896  0.66652021  0.57979684    -0.79800
Zn1296     Zn  0.11489802  0.63574197  0.65176367     1.55700
O1297       O  0.01675442  0.62696662  0.60902163    -0.81200
Cd1298     Cd  0.08966054  0.62717542  0.58290176     1.59700
Cd1299     Cd  0.10594599  0.56722679  0.62578961     1.59600
O1300       O  0.10607656  0.59415725  0.55305168    -0.81200
O1301       O  0.08934559  0.61029318  0.62586732    -1.91700
Cd1302     Cd  0.04625208  0.61031741  0.64232441     1.59900
O1303       O  0.11507125  0.55223192  0.58135734    -0.81200
O1304       O  0.04253166  0.63722925  0.68177546    -0.79800
C1305       C  0.15847397  0.58373351  0.66937118     0.82700
C1306       C  0.13371642  0.67916198  0.60008590     0.82300
O1307       O  0.09012797  0.65607887  0.68496840    -0.78800
C1308       C  0.01943622  0.63550599  0.58106418     0.83200
O1309       O  0.14816374  0.61098980  0.67193273    -0.78900
C1310       C  0.11384751  0.56596886  0.55548410     0.83300
C1311       C  0.04505688  0.53998231  0.65104123     0.83600
O1312       O  0.07314370  0.53744035  0.64292978    -0.81300
C1313       C  0.62368573  0.42103103  0.02714732     0.79900
N1314       N  0.62234153  0.40555831  0.50012292    -0.78400
C1315       C  0.62253763  0.42097899  0.47303099     0.82300
N1316       N  0.62351894  0.45223529  0.47299349    -0.78400
C1317       C  0.62531649  0.46800660  0.99998471     0.82400
N1318       N  0.62459266  0.45228889  0.02706049    -0.80100
C1319       C  0.80776518  0.04864660  0.02697777     0.79900
N1320       N  0.80488450  0.01747565  0.02709574    -0.78400
C1321       C  0.80319128  0.00171255  0.00003120     0.82300
N1322       N  0.80490067  0.01734164  0.47287490    -0.78400
C1323       C  0.80777404  0.04849980  0.47277575     0.82400
N1324       N  0.80940873  0.06379927  0.99983206    -0.80100
C1325       C  0.89993401  0.01179167  0.15652164     0.79900
N1326       N  0.88471257  0.48468625  0.15487822    -0.78400
C1327       C  0.89993686  0.45758402  0.15652995     0.82300
N1328       N  0.93109701  0.45759541  0.15943637    -0.78400
C1329       C  0.94679638  0.48471140  0.16114112     0.82400
N1330       N  0.93110205  0.01181896  0.15941772    -0.80100
C1331       C  0.52791129  0.01136143  0.34210154     0.79900
N1332       N  0.49667760  0.01163454  0.33968815    -0.78400
C1333       C  0.98071386  0.48466927  0.33869606     0.82300
N1334       N  0.49617098  0.45749602  0.34085748    -0.78400
C1335       C  0.52735137  0.45719172  0.34271731     0.82400
N1336       N  0.54297632  0.48408440  0.34370654    -0.80100
C1337       C  0.93728068  0.32798569  0.06434057     0.79900
N1338       N  0.93697888  0.32540219  0.03313992    -0.78400
C1339       C  0.96391392  0.32405956  0.01717438     0.82300
N1340       N  0.99111318  0.32596091  0.03257634    -0.78400
C1341       C  0.99145370  0.32796230  0.06373859     0.82400
N1342       N  0.96458282  0.32936887  0.07939656    -0.80100
C1343       C  0.93677252  0.14109054  0.43601120     0.79900
N1344       N  0.93680068  0.14426427  0.46716141    -0.78400
C1345       C  0.96394303  0.14612747  0.48284076     0.82300
N1346       N  0.99104634  0.14426269  0.46711498    -0.78400
C1347       C  0.99099068  0.14108602  0.43596459     0.82400
N1348       N  0.96386398  0.13930919  0.42080037    -0.80100
C1349       C  0.80640388  0.42060957  0.02689220     0.79900
N1350       N  0.80412243  0.45185599  0.02706147    -0.78400
C1351       C  0.80287521  0.46774417  0.50003718     0.82300
N1352       N  0.80465820  0.45218234  0.47290846    -0.78400
C1353       C  0.80635852  0.42098347  0.47272715     0.82400
N1354       N  0.80763940  0.40545953  0.49966557    -0.80100
C1355       C  0.61975699  0.04870794  0.47279901     0.79900
N1356       N  0.61806238  0.06398283  0.99987291    -0.78400
C1357       C  0.61978579  0.04879604  0.02700170     0.82300
N1358       N  0.62283078  0.01765102  0.02705024    -0.78400
C1359       C  0.62456005  0.00193658  0.99996660     0.82400
N1360       N  0.62277545  0.01757065  0.47283911    -0.80100
C1361       C  0.89955720  0.01136349  0.34224539     0.79900
N1362       N  0.93080060  0.01165724  0.33984283    -0.78400
C1363       C  0.94676217  0.48468334  0.33868796     0.82300
N1364       N  0.93130365  0.45752182  0.34065945    -0.78400
C1365       C  0.90013230  0.45719141  0.34248468     0.82400
N1366       N  0.88449279  0.48407513  0.34366827    -0.80100
C1367       C  0.52785406  0.01156033  0.15740966     0.79900
N1368       N  0.49663299  0.01170303  0.15991754    -0.78400
C1369       C  0.98076930  0.48467382  0.16128320     0.82300
N1370       N  0.49633720  0.45754264  0.15939205    -0.78400
C1371       C  0.52753210  0.45740308  0.15744882     0.82400
N1372       N  0.54301413  0.48435206  0.15604757    -0.80100
C1373       C  0.93671230  0.32525374  0.43627768     0.79900
N1374       N  0.93672364  0.32448999  0.46754346    -0.78400
C1375       C  0.96376745  0.32338938  0.48327659     0.82300
N1376       N  0.99078686  0.32461459  0.46753439    -0.78400
C1377       C  0.99084431  0.32540198  0.43629751     0.82400
N1378       N  0.96378435  0.32600905  0.42081960    -0.80100
C1379       C  0.93683696  0.14185986  0.06374957     0.79900
N1380       N  0.93684614  0.14468559  0.03257098    -0.78400
C1381       C  0.96396647  0.14635405  0.01686587     0.82300
N1382       N  0.99107941  0.14462139  0.03260560    -0.78400
C1383       C  0.99104476  0.14179231  0.06379381     0.82400
N1384       N  0.96392915  0.14022061  0.07898320    -0.80100
C1385       C  0.64971256  0.26137101  0.40822528     0.79900
N1386       N  0.63469002  0.23408875  0.40646315    -0.78400
C1387       C  0.65033540  0.20720945  0.40738206     0.82300
N1388       N  0.68150962  0.20754386  0.40934736    -0.78400
C1389       C  0.69694018  0.23471638  0.41166730     0.82400
N1390       N  0.68094603  0.26168293  0.41073493    -0.80100
C1391       C  0.64986121  0.26164954  0.09294400     0.79900
N1392       N  0.63468620  0.23442456  0.09422159    -0.78400
C1393       C  0.65021974  0.20748362  0.09288823     0.82300
N1394       N  0.68141040  0.20767320  0.09107882    -0.78400
C1395       C  0.69694500  0.23480872  0.08929708     0.82400
N1396       N  0.68107845  0.26181238  0.09056207    -0.80100
C1397       C  0.55495196  0.17091059  0.22286300     0.79900
N1398       N  0.55381397  0.20216934  0.22287640    -0.78400
C1399       C  0.55248317  0.21791721  0.24990987     0.82300
N1400       N  0.55384638  0.20216841  0.27696408    -0.78400
C1401       C  0.55499959  0.17091123  0.27699158     0.82400
N1402       N  0.55585425  0.15547706  0.24993207    -0.80100
O1403       O  0.59022227  0.15594901  0.31485241    -0.78800
C1404       C  0.63389489  0.17887687  0.39990427     0.82200
O1405       O  0.64584174  0.06341341  0.34765317    -0.79900
O1406       O  0.60610253  0.09397683  0.44663780    -0.81400
O1407       O  0.51675127  0.12631293  0.39076419    -0.81200
O1408       O  0.54256171  0.13724991  0.31809406    -0.79800
Zn1409     Zn  0.61506860  0.13550723  0.34802418     1.55700
O1410       O  0.54542839  0.13678688  0.43208540    -0.81200
Cd1411     Cd  0.54631835  0.11005095  0.35734747     1.59700
Cd1412     Cd  0.60596897  0.06691404  0.37391936     1.59600
O1413       O  0.53153763  0.06569044  0.34720696    -0.81200
O1414       O  0.58941976  0.11002041  0.37383096    -1.91700
Cd1415     Cd  0.58965762  0.12691546  0.41679545     1.59900
O1416       O  0.57319457  0.03715661  0.35670696    -0.81200
O1417       O  0.61671118  0.16624557  0.42001770    -0.79800
C1418       C  0.65839093  0.08329375  0.33013438     0.82700
C1419       C  0.56265759  0.15423538  0.30515620     0.82300
O1420       O  0.63582237  0.16881514  0.37249341    -0.78800
C1421       C  0.51940711  0.13490322  0.41870529     0.83200
O1422       O  0.64814991  0.11059145  0.32763715    -0.78900
C1423       C  0.54517333  0.03974870  0.34839730     0.83300
C1424       C  0.61383005  0.06578001  0.44426249     0.83600
O1425       O  0.61502486  0.05197874  0.41842296    -0.81300
C1426       C  0.87245844  0.17063217  0.27706815     0.79900
N1427       N  0.87369912  0.20187893  0.27708514    -0.78400
C1428       C  0.87511916  0.21761823  0.25006045     0.82300
N1429       N  0.87381291  0.20189897  0.22300885    -0.78400
C1430       C  0.87257894  0.17065961  0.22294112     0.82400
N1431       N  0.87159100  0.15519852  0.24999246    -0.80100
C1432       C  0.68664282  0.07575235  0.31360248     0.79900
N1433       N  0.68671549  0.07465690  0.28235716    -0.78400
C1434       C  0.71378380  0.07346853  0.26666942     0.82300
N1435       N  0.74078638  0.07485957  0.28242820    -0.78400
C1436       C  0.74077280  0.07596557  0.31366535     0.82400
N1437       N  0.71368859  0.07669584  0.32909483    -0.80100
O1438       O  0.79198840  0.16900055  0.37269574    -0.78800
C1439       C  0.86478365  0.15402106  0.30522125     0.82200
O1440       O  0.78161245  0.06358093  0.34760346    -0.79900
O1441       O  0.89595245  0.06568147  0.34756160    -0.81400
O1442       O  0.88231403  0.13665985  0.43225171    -0.81200
O1443       O  0.81106350  0.16626810  0.42024208    -0.79800
Zn1444     Zn  0.81243295  0.13563093  0.34819230     1.55700
O1445       O  0.91087486  0.12646606  0.39081040    -0.81200
Cd1446     Cd  0.83802655  0.12686940  0.41695191     1.59700
Cd1447     Cd  0.82145810  0.06698921  0.37389251     1.59600
O1448       O  0.82155571  0.09378972  0.44667390    -0.81200
O1449       O  0.83808169  0.11008052  0.37395552    -1.91700
Cd1450     Cd  0.88117872  0.11007227  0.35754226     1.59900
O1451       O  0.81235728  0.05191151  0.41835700    -0.81200
O1452       O  0.88485954  0.13703695  0.31817845    -0.79800
C1453       C  0.76897004  0.08354325  0.33025566     0.82700
C1454       C  0.79395105  0.17899737  0.40012104     0.82300
O1455       O  0.83725161  0.15588406  0.31495817    -0.78800
C1456       C  0.90830139  0.13491955  0.41879732     0.83200
O1457       O  0.77915303  0.11087780  0.32789489    -0.78900
C1458       C  0.81369319  0.06562455  0.44424108     0.83300
C1459       C  0.88227955  0.03975256  0.34856972     0.83600
O1460       O  0.85419298  0.03717413  0.35666906    -0.81300
C1461       C  0.55780299  0.29864901  0.27714741     0.79900
N1462       N  0.55475501  0.26750960  0.27706330    -0.78400
C1463       C  0.55312410  0.25187824  0.24992646     0.82300
N1464       N  0.55501827  0.26761811  0.22283885    -0.78400
C1465       C  0.55808884  0.29877260  0.22291635     0.82400
N1466       N  0.55966693  0.31393385  0.25006984    -0.80100
O1467       O  0.58715124  0.40586991  0.43531410    -0.78800
C1468       C  0.54379208  0.42884544  0.35015455     0.82200
O1469       O  0.53172882  0.31318734  0.40232802    -0.79900
O1470       O  0.57139697  0.34392152  0.30340003    -0.81400
O1471       O  0.66084513  0.37611581  0.35951081    -0.81200
O1472       O  0.63484316  0.38726885  0.43202171    -0.79800
Zn1473     Zn  0.56236707  0.38538184  0.40204190     1.55700
O1474       O  0.63225705  0.38646068  0.31809274    -0.81200
Cd1475     Cd  0.63115763  0.35999995  0.39288960     1.59700
Cd1476     Cd  0.57162075  0.31678450  0.37612252     1.59600
O1477       O  0.64597516  0.31571448  0.40325046    -0.81200
O1478       O  0.58809545  0.35992509  0.37627976    -1.91700
Cd1479     Cd  0.58795385  0.37681139  0.33329941     1.59900
O1480       O  0.60445582  0.28709634  0.39339527    -0.81200
O1481       O  0.56108417  0.41629307  0.33008592    -0.79800
C1482       C  0.51905039  0.33305945  0.41974866     0.82700
C1483       C  0.61474283  0.40421300  0.44497177     0.82300
O1484       O  0.54170302  0.41867341  0.37751269    -0.78800
C1485       C  0.65824909  0.38457667  0.33152262     0.83200
O1486       O  0.52920265  0.36039720  0.42223885    -0.78900
C1487       C  0.63241775  0.28974354  0.40190961     0.83300
C1488       C  0.56369659  0.31570759  0.30573035     0.83600
O1489       O  0.56255282  0.30186793  0.33156755    -0.81300
C1490       C  0.77808320  0.26149124  0.40798538     0.79900
N1491       N  0.79314720  0.23421901  0.40641670    -0.78400
C1492       C  0.77754723  0.20732828  0.40759521     0.82300
N1493       N  0.74638037  0.20761157  0.40956636    -0.78400
C1494       C  0.73090419  0.23477181  0.41167966     0.82400
N1495       N  0.74685151  0.26175751  0.41053232    -0.80100
C1496       C  0.68669465  0.39061809  0.31426466     0.79900
N1497       N  0.68661985  0.39390378  0.28311765    -0.78400
C1498       C  0.71373123  0.39575909  0.26740664     0.82300
N1499       N  0.74085670  0.39382017  0.28307021    -0.78400
C1500       C  0.74090948  0.39052802  0.31418889     0.82400
N1501       N  0.71382443  0.38873859  0.32942004    -0.80100
C1502       C  0.87101083  0.29864955  0.27680457     0.79900
N1503       N  0.87345103  0.26742939  0.27699725    -0.78400
C1504       C  0.87480033  0.25154587  0.25000120     0.82300
N1505       N  0.87303854  0.26706281  0.22285642    -0.78400
C1506       C  0.87117543  0.29824614  0.22264260     0.82400
N1507       N  0.86976114  0.31379625  0.24956523    -0.80100
O1508       O  0.88624923  0.41836253  0.37702121    -0.78800
C1509       C  0.81368314  0.40441476  0.44447275     0.82200
O1510       O  0.89594248  0.31303432  0.40213928    -0.79900
O1511       O  0.78189129  0.31584395  0.40305344    -0.81400
O1512       O  0.79535362  0.38604374  0.31771146    -0.81200
O1513       O  0.86628121  0.41640123  0.32980403    -0.79800
Zn1514     Zn  0.86558573  0.38519275  0.40150217     1.55700
O1515       O  0.76695616  0.37624882  0.35938990    -0.81200
Cd1516     Cd  0.83979133  0.37664593  0.33279534     1.59700
Cd1517     Cd  0.85622533  0.31674373  0.37564456     1.59600
O1518       O  0.85685563  0.34398672  0.30280458    -0.81200
O1519       O  0.83973998  0.35982981  0.37579818    -1.91700
Cd1520     Cd  0.79676702  0.36010110  0.39261321     1.59900
O1521       O  0.86564575  0.30201395  0.33111548    -0.81200
O1522       O  0.79340886  0.38751278  0.43170801    -0.79800
C1523       C  0.90856239  0.33288531  0.41963380     0.82700
C1524       C  0.88378718  0.42879136  0.34980133     0.82300
O1525       O  0.84118473  0.40592572  0.43464953    -0.78800
C1526       C  0.76942595  0.38444262  0.33131989     0.83200
O1527       O  0.89850386  0.36025115  0.42198671    -0.78900
C1528       C  0.86472639  0.31582303  0.30524987     0.83300
C1529       C  0.79536315  0.28983606  0.40151273     0.83600
O1530       O  0.82324222  0.28713699  0.39275859    -0.81300
C1531       C  0.68676679  0.07625508  0.18582502     0.79900
N1532       N  0.71382540  0.07743032  0.17036950    -0.78400
C1533       C  0.74089799  0.07661052  0.18582891     0.82300
N1534       N  0.74087607  0.07520930  0.21706433    -0.78400
C1535       C  0.71383309  0.07362823  0.23276663     0.82400
N1536       N  0.68680410  0.07487075  0.21704517    -0.80100
O1537       O  0.79267099  0.16974177  0.12665692    -0.78800
C1538       C  0.76915572  0.08415151  0.16927563     0.82200
O1539       O  0.88504563  0.13705317  0.18180310    -0.79900
O1540       O  0.85461390  0.03775312  0.14249015    -0.81400
O1541       O  0.82172483  0.09404004  0.05281998    -0.81200
O1542       O  0.81134301  0.16670357  0.07898477    -0.79800
Zn1543     Zn  0.81277585  0.13618482  0.15127286     1.55700
O1544       O  0.81231379  0.05234120  0.08133166    -0.81200
Cd1545     Cd  0.83818233  0.12720901  0.08249117     1.59700
Cd1546     Cd  0.88142324  0.11051057  0.14210018     1.59600
O1547       O  0.88245674  0.13703072  0.06736618    -0.81200
O1548       O  0.83832666  0.11053541  0.12556123    -1.91700
Cd1549     Cd  0.82165813  0.06748230  0.12566977     1.59900
O1550       O  0.91099090  0.12733964  0.10898178    -0.81200
O1551       O  0.78193437  0.06407019  0.15216885    -0.79800
C1552       C  0.86499499  0.15412279  0.19468568     0.82700
C1553       C  0.79448631  0.17964394  0.09917403     0.82300
O1554       O  0.77925314  0.11154182  0.17141017    -0.78800
C1555       C  0.81372924  0.06592026  0.05539135     0.83200
O1556       O  0.83755674  0.15621241  0.18471840    -0.78900
C1557       C  0.90840473  0.13561909  0.08094037     0.83300
C1558       C  0.88276763  0.04024931  0.15039372     0.83600
O1559       O  0.89647432  0.06613785  0.15154048    -0.81300
C1560       C  0.68710949  0.39306021  0.18616806     0.79900
N1561       N  0.68684607  0.39520807  0.21742680    -0.78400
C1562       C  0.71382112  0.39640406  0.23340851     0.82300
N1563       N  0.74100844  0.39468718  0.21790010    -0.78400
C1564       C  0.74128712  0.39314693  0.18668036     0.82400
N1565       N  0.71438614  0.39192732  0.17109422    -0.80100
C1566       C  0.77781032  0.26200086  0.09136669     0.79900
N1567       N  0.74656437  0.26194569  0.09021987    -0.78400
C1568       C  0.73086566  0.23488897  0.08900524     0.82300
N1569       N  0.74662403  0.20787020  0.09045602    -0.78400
C1570       C  0.77786634  0.20786713  0.09163811     0.82400
N1571       N  0.79329440  0.23495331  0.09238495    -0.80100
O1572       O  0.83668417  0.31268510  0.18404293    -0.78800
C1573       C  0.76954851  0.38565482  0.17012385     0.82200
O1574       O  0.81198770  0.30269448  0.07904124    -0.79900
O1575       O  0.81142406  0.41693768  0.08126143    -0.81400
O1576       O  0.89629406  0.40316182  0.15207392    -0.81200
O1577       O  0.88416378  0.33198753  0.18187923    -0.79800
Zn1578     Zn  0.81230523  0.33351214  0.15098046     1.55700
O1579       O  0.85475866  0.43169318  0.14200834    -0.81200
Cd1580     Cd  0.88119769  0.35882047  0.14237554     1.59700
Cd1581     Cd  0.83838767  0.34250219  0.08247751     1.59600
O1582       O  0.91128707  0.34201616  0.10971333    -0.81200
O1583       O  0.83819082  0.35908173  0.12552352    -1.91700
Cd1584     Cd  0.82149533  0.40208807  0.12564689     1.59900
O1585       O  0.88295447  0.33313448  0.06778469    -0.81200
O1586       O  0.78228415  0.40573114  0.15295726    -0.79800
C1587       C  0.79435083  0.29024545  0.09887840     0.82700
C1588       C  0.86399248  0.31471696  0.19430885     0.81500
O1589       O  0.77933780  0.35814826  0.17183310    -0.78800
C1590       C  0.88276188  0.42912372  0.15039946     0.83200
O1591       O  0.79176438  0.30055563  0.12613172    -0.78900
C1592       C  0.90883962  0.33415390  0.08155872     0.83300
C1593       C  0.81281246  0.40336546  0.05529499     0.83600
O1594       O  0.82129944  0.37538779  0.05269089    -0.81300
O1595       O  0.53058662  0.36216315  0.07748145    -0.78800
C1596       C  0.54414937  0.42917939  0.15012479     0.82200
O1597       O  0.63599223  0.38703381  0.06807703    -0.79900
O1598       O  0.63274599  0.38796685  0.18218624    -0.81400
O1599       O  0.56254439  0.30250761  0.16847260    -0.81200
O1600       O  0.53212861  0.31501368  0.09762940    -0.79800
Zn1601     Zn  0.56376986  0.38643156  0.09824185     1.55700
O1602       O  0.57239350  0.34407256  0.19700255    -0.81200
Cd1603     Cd  0.57194734  0.31774400  0.12406857     1.59700
Cd1604     Cd  0.63211115  0.36053348  0.10784031     1.59600
O1605       O  0.60452607  0.28774236  0.10689938    -0.81200
O1606       O  0.58895656  0.36066771  0.12419406    -1.91700
Cd1607     Cd  0.58850694  0.37736049  0.16720778     1.59900
O1608       O  0.64666541  0.31594262  0.09845631    -0.81200
O1609       O  0.56083155  0.41628443  0.17050112    -0.79800
C1610       C  0.61614121  0.40448584  0.05538320     0.82700
C1611       C  0.51992202  0.33505556  0.08004510     0.82300
O1612       O  0.54296989  0.41956364  0.12253866    -0.78800
C1613       C  0.56417160  0.31601540  0.19444930     0.83200
O1614       O  0.58876694  0.40682293  0.06539247    -0.78900
C1615       C  0.63274248  0.29012583  0.09919648     0.83300
C1616       C  0.65881305  0.38645346  0.16881355     0.83600
O1617       O  0.66162299  0.37764433  0.14095627    -0.81300
O1618       O  0.63546121  0.16907913  0.12748190    -0.78800
C1619       C  0.56259814  0.15425506  0.19470833     0.82200
O1620       O  0.64587484  0.06380409  0.15195310    -0.79900
O1621       O  0.53136830  0.06590026  0.15211553    -0.81400
O1622       O  0.54544773  0.13717566  0.06764892    -0.81200
O1623       O  0.61673900  0.16652007  0.07979705    -0.79800
Zn1624     Zn  0.61489800  0.13574193  0.15176376     1.55700
O1625       O  0.51675443  0.12696651  0.10902165    -0.81200
Cd1626     Cd  0.58966058  0.12717540  0.08290184     1.59700
Cd1627     Cd  0.60594597  0.06722671  0.12578959     1.59600
O1628       O  0.60607660  0.09415737  0.05305160    -0.81200
O1629       O  0.58934562  0.11029317  0.12586735    -1.91700
Cd1630     Cd  0.54625213  0.11031738  0.14232435     1.59900
O1631       O  0.61507130  0.05223186  0.08135726    -0.81200
O1632       O  0.54253133  0.13722906  0.18177534    -0.79800
C1633       C  0.65847419  0.08373329  0.16937139     0.82700
C1634       C  0.63371652  0.17916230  0.10008587     0.82300
O1635       O  0.59012767  0.15607877  0.18496843    -0.78800
C1636       C  0.51943629  0.13550594  0.08106418     0.83200
O1637       O  0.64816366  0.11099004  0.17193287    -0.78900
C1638       C  0.61384741  0.06596855  0.05548452     0.83300
C1639       C  0.54505678  0.03998190  0.15104114     0.83600
O1640       O  0.57314385  0.03744033  0.14292966    -0.81300
C1641       C  0.62368572  0.42103108  0.52714741     0.79900
N1642       N  0.62234158  0.40555819  0.00012289    -0.78400
C1643       C  0.62253786  0.42097904  0.97303140     0.82300
N1644       N  0.62351886  0.45223523  0.97299275    -0.78400
C1645       C  0.62531647  0.46800658  0.49998354     0.82400
N1646       N  0.62459263  0.45228884  0.52706089    -0.80100
C1647       C  0.80776527  0.04864653  0.52697775     0.79900
N1648       N  0.80488446  0.01747546  0.52709570    -0.78400
C1649       C  0.80319132  0.00171276  0.50003126     0.82300
N1650       N  0.80490075  0.01734176  0.97287493    -0.78400
C1651       C  0.80777403  0.04849991  0.97277561     0.82400
N1652       N  0.80940866  0.06379923  0.49983165    -0.80100
C1653       C  0.89993373  0.01179249  0.65652148     0.79900
N1654       N  0.88471285  0.48468653  0.65487831    -0.78400
C1655       C  0.89993643  0.45758421  0.65652986     0.82300
N1656       N  0.93109758  0.45759566  0.65943637    -0.78400
C1657       C  0.94679575  0.48471090  0.66114098     0.82400
N1658       N  0.93110206  0.01181858  0.65941767    -0.80100
C1659       C  0.52791139  0.01136096  0.84210151     0.79900
N1660       N  0.49667753  0.01163485  0.83968810    -0.78400
C1661       C  0.98071364  0.48466964  0.83869606     0.82300
N1662       N  0.49617129  0.45749587  0.84085744    -0.78400
C1663       C  0.52735134  0.45719160  0.84271715     0.82400
N1664       N  0.54297642  0.48408422  0.84370646    -0.80100
C1665       C  0.93728019  0.32798571  0.56434034     0.79900
N1666       N  0.93697904  0.32540217  0.53314001    -0.78400
C1667       C  0.96391347  0.32405971  0.51717443     0.82300
N1668       N  0.99111339  0.32596090  0.53257644    -0.78400
C1669       C  0.99145377  0.32796229  0.56373848     0.82400
N1670       N  0.96458286  0.32936878  0.57939652    -0.80100
C1671       C  0.93677235  0.14109049  0.93601106     0.79900
N1672       N  0.93680076  0.14426430  0.96716154    -0.78400
C1673       C  0.96394325  0.14612743  0.98284068     0.82300
N1674       N  0.99104618  0.14426264  0.96711524    -0.78400
C1675       C  0.99099067  0.14108589  0.93596460     0.82400
N1676       N  0.96386422  0.13930909  0.92080034    -0.80100
C1677       C  0.80640379  0.42060999  0.52689268     0.79900
N1678       N  0.80412243  0.45185574  0.52706128    -0.78400
C1679       C  0.80287531  0.46774379  0.00003725     0.82300
N1680       N  0.80465810  0.45218269  0.97290852    -0.78400
C1681       C  0.80635859  0.42098325  0.97272722     0.82400
N1682       N  0.80763932  0.40545982  0.99966561    -0.80100
C1683       C  0.61975711  0.04870770  0.97279859     0.79900
N1684       N  0.61806241  0.06398291  0.49987271    -0.78400
C1685       C  0.61978574  0.04879562  0.52700217     0.82300
N1686       N  0.62283089  0.01765112  0.52704982    -0.78400
C1687       C  0.62455995  0.00193607  0.49996758     0.82400
N1688       N  0.62277545  0.01757053  0.97283938    -0.80100
C1689       C  0.89955670  0.01136352  0.84224539     0.79900
N1690       N  0.93080085  0.01165733  0.83984283    -0.78400
C1691       C  0.94676200  0.48468276  0.83868792     0.82300
N1692       N  0.93130387  0.45752207  0.84065940    -0.78400
C1693       C  0.90013216  0.45719121  0.84248465     0.82400
N1694       N  0.88449280  0.48407521  0.84366820    -0.80100
C1695       C  0.52785428  0.01155965  0.65740971     0.79900
N1696       N  0.49663295  0.01170330  0.65991749    -0.78400
C1697       C  0.98076990  0.48467386  0.66128315     0.82300
N1698       N  0.49633750  0.45754282  0.65939189    -0.78400
C1699       C  0.52753172  0.45740288  0.65744875     0.82400
N1700       N  0.54301444  0.48435217  0.65604750    -0.80100
C1701       C  0.93671174  0.32525375  0.93627786     0.79900
N1702       N  0.93672401  0.32448992  0.96754333    -0.78400
C1703       C  0.96376689  0.32338931  0.98327648     0.82300
N1704       N  0.99078698  0.32461466  0.96753462    -0.78400
C1705       C  0.99084424  0.32540205  0.93629723     0.82400
N1706       N  0.96378464  0.32600911  0.92081963    -0.80100
C1707       C  0.93683724  0.14185988  0.56374997     0.79900
N1708       N  0.93684608  0.14468556  0.53257076    -0.78400
C1709       C  0.96396662  0.14635405  0.51686605     0.82300
N1710       N  0.99107928  0.14462132  0.53260552    -0.78400
C1711       C  0.99104484  0.14179224  0.56379363     0.82400
N1712       N  0.96392885  0.14022053  0.57898325    -0.80100
C1713       C  0.64971207  0.26137106  0.90822527     0.79900
N1714       N  0.63469023  0.23408880  0.90646326    -0.78400
C1715       C  0.65033517  0.20720957  0.90738198     0.82300
N1716       N  0.68150991  0.20754377  0.90934740    -0.78400
C1717       C  0.69693976  0.23471640  0.91166725     0.82400
N1718       N  0.68094649  0.26168284  0.91073498    -0.80100
C1719       C  0.64986158  0.26164914  0.59294396     0.79900
N1720       N  0.63468606  0.23442479  0.59422146    -0.78400
C1721       C  0.65022008  0.20748385  0.59288817     0.82300
N1722       N  0.68141031  0.20767308  0.59107877    -0.78400
C1723       C  0.69694519  0.23480872  0.58929715     0.82400
N1724       N  0.68107836  0.26181248  0.59056200    -0.80100
C1725       C  0.55495221  0.17091020  0.72286306     0.79900
N1726       N  0.55381404  0.20216945  0.72287647    -0.78400
C1727       C  0.55248326  0.21791714  0.74990982     0.82300
N1728       N  0.55384638  0.20216808  0.77696411    -0.78400
C1729       C  0.55499950  0.17091179  0.77699146     0.82400
N1730       N  0.55585426  0.15547706  0.74993205    -0.80100
O1731       O  0.59022204  0.15594892  0.81485240    -0.78800
C1732       C  0.63389510  0.17887699  0.89990437     0.82200
O1733       O  0.64584169  0.06341341  0.84765321    -0.79900
O1734       O  0.60610259  0.09397682  0.94663775    -0.81400
O1735       O  0.51675129  0.12631283  0.89076436    -0.81200
O1736       O  0.54256166  0.13724997  0.81809408    -0.79800
Zn1737     Zn  0.61506861  0.13550723  0.84802417     1.55700
O1738       O  0.54542844  0.13678683  0.93208554    -0.81200
Cd1739     Cd  0.54631824  0.11005091  0.85734737     1.59700
Cd1740     Cd  0.60596888  0.06691417  0.87391927     1.59600
O1741       O  0.53153750  0.06569044  0.84720676    -0.81200
O1742       O  0.58941970  0.11002045  0.87383094    -1.91700
Cd1743     Cd  0.58965755  0.12691551  0.91679547     1.59900
O1744       O  0.57319438  0.03715655  0.85670687    -0.81200
O1745       O  0.61671105  0.16624561  0.92001761    -0.79800
C1746       C  0.65839110  0.08329396  0.83013435     0.82700
C1747       C  0.56265770  0.15423531  0.80515610     0.82300
O1748       O  0.63582235  0.16881507  0.87249351    -0.78800
C1749       C  0.51940694  0.13490307  0.91870499     0.83200
O1750       O  0.64814994  0.11059124  0.82763717    -0.78900
C1751       C  0.54517343  0.03974899  0.84839718     0.83300
C1752       C  0.61383003  0.06578047  0.94426248     0.83600
O1753       O  0.61502475  0.05197869  0.91842297    -0.81300
C1754       C  0.87245860  0.17063189  0.77706819     0.79900
N1755       N  0.87369915  0.20187915  0.77708487    -0.78400
C1756       C  0.87511915  0.21761844  0.75006119     0.82300
N1757       N  0.87381291  0.20189849  0.72300865    -0.78400
C1758       C  0.87257897  0.17065972  0.72294089     0.82400
N1759       N  0.87159104  0.15519854  0.74999259    -0.80100
C1760       C  0.68664285  0.07575233  0.81360229     0.79900
N1761       N  0.68671511  0.07465689  0.78235730    -0.78400
C1762       C  0.71378469  0.07346857  0.76666963     0.82300
N1763       N  0.74078617  0.07485946  0.78242800    -0.78400
C1764       C  0.74077274  0.07596571  0.81366560     0.82400
N1765       N  0.71368858  0.07669574  0.82909470    -0.80100
O1766       O  0.79198842  0.16900042  0.87269543    -0.78800
C1767       C  0.86478344  0.15402133  0.80522122     0.82200
O1768       O  0.78161242  0.06358089  0.84760355    -0.79900
O1769       O  0.89595259  0.06568157  0.84756162    -0.81400
O1770       O  0.88231378  0.13665994  0.93225183    -0.81200
O1771       O  0.81106358  0.16626817  0.92024207    -0.79800
Zn1772     Zn  0.81243301  0.13563091  0.84819236     1.55700
O1773       O  0.91087484  0.12646603  0.89081044    -0.81200
Cd1774     Cd  0.83802669  0.12686945  0.91695200     1.59700
Cd1775     Cd  0.82145808  0.06698928  0.87389254     1.59600
O1776       O  0.82155583  0.09378995  0.94667395    -0.81200
O1777       O  0.83808173  0.11008052  0.87395558    -1.91700
Cd1778     Cd  0.88117880  0.11007220  0.85754230     1.59900
O1779       O  0.81235718  0.05191174  0.91835709    -0.81200
O1780       O  0.88485958  0.13703693  0.81817854    -0.79800
C1781       C  0.76897029  0.08354320  0.83025549     0.82700
C1782       C  0.79395124  0.17899744  0.90012142     0.82300
O1783       O  0.83725191  0.15588391  0.81495823    -0.78800
C1784       C  0.90830185  0.13491964  0.91879739     0.83200
O1785       O  0.77915295  0.11087766  0.82789491    -0.78900
C1786       C  0.81369330  0.06562441  0.94424115     0.83300
C1787       C  0.88227975  0.03975254  0.84856972     0.83600
O1788       O  0.85419279  0.03717408  0.85666915    -0.81300
C1789       C  0.55780294  0.29864860  0.77714716     0.79900
N1790       N  0.55475510  0.26750938  0.77706331    -0.78400
C1791       C  0.55312418  0.25187883  0.74992655     0.82300
N1792       N  0.55501831  0.26761769  0.72283889    -0.78400
C1793       C  0.55808872  0.29877249  0.72291666     0.82400
N1794       N  0.55966703  0.31393404  0.75006987    -0.80100
O1795       O  0.58715135  0.40586998  0.93531391    -0.78800
C1796       C  0.54379210  0.42884550  0.85015467     0.82200
O1797       O  0.53172891  0.31318725  0.90232799    -0.79900
O1798       O  0.57139711  0.34392150  0.80339990    -0.81400
O1799       O  0.66084521  0.37611581  0.85951085    -0.81200
O1800       O  0.63484333  0.38726862  0.93202160    -0.79800
Zn1801     Zn  0.56236705  0.38538189  0.90204184     1.55700
O1802       O  0.63225726  0.38646061  0.81809276    -0.81200
Cd1803     Cd  0.63115757  0.35999989  0.89288956     1.59700
Cd1804     Cd  0.57162077  0.31678457  0.87612251     1.59600
O1805       O  0.64597511  0.31571451  0.90325046    -0.81200
O1806       O  0.58809543  0.35992515  0.87627968    -1.91700
Cd1807     Cd  0.58795392  0.37681135  0.83329929     1.59900
O1808       O  0.60445585  0.28709640  0.89339534    -0.81200
O1809       O  0.56108416  0.41629295  0.83008589    -0.79800
C1810       C  0.51905040  0.33305951  0.91974865     0.82700
C1811       C  0.61474250  0.40421318  0.94497187     0.82300
O1812       O  0.54170305  0.41867345  0.87751227    -0.78800
C1813       C  0.65824889  0.38457656  0.83152267     0.83200
O1814       O  0.52920263  0.36039743  0.92223887    -0.78900
C1815       C  0.63241810  0.28974342  0.90190957     0.83300
C1816       C  0.56369669  0.31570767  0.80573041     0.83600
O1817       O  0.56255277  0.30186778  0.83156764    -0.81300
C1818       C  0.77808371  0.26149137  0.90798516     0.79900
N1819       N  0.79314725  0.23421932  0.90641670    -0.78400
C1820       C  0.77754686  0.20732814  0.90759513     0.82300
N1821       N  0.74638080  0.20761152  0.90956637    -0.78400
C1822       C  0.73090418  0.23477175  0.91167958     0.82400
N1823       N  0.74685148  0.26175750  0.91053232    -0.80100
C1824       C  0.68669507  0.39061821  0.81426437     0.79900
N1825       N  0.68661963  0.39390364  0.78311796    -0.78400
C1826       C  0.71373195  0.39575912  0.76740653     0.82300
N1827       N  0.74085640  0.39382015  0.78307017    -0.78400
C1828       C  0.74091002  0.39052811  0.81418875     0.82400
N1829       N  0.71382407  0.38873848  0.82942020    -0.80100
C1830       C  0.87101077  0.29864946  0.77680429     0.79900
N1831       N  0.87345113  0.26742927  0.77699750    -0.78400
C1832       C  0.87480032  0.25154561  0.75000057     0.82300
N1833       N  0.87303861  0.26706286  0.72285648    -0.78400
C1834       C  0.87117546  0.29824597  0.72264288     0.82400
N1835       N  0.86976122  0.31379622  0.74956533    -0.80100
O1836       O  0.88624917  0.41836258  0.87702107    -0.78800
C1837       C  0.81368292  0.40441460  0.94447250     0.82200
O1838       O  0.89594226  0.31303437  0.90213925    -0.79900
O1839       O  0.78189146  0.31584393  0.90305326    -0.81400
O1840       O  0.79535369  0.38604375  0.81771129    -0.81200
O1841       O  0.86628137  0.41640125  0.82980417    -0.79800
Zn1842     Zn  0.86558574  0.38519283  0.90150217     1.55700
O1843       O  0.76695615  0.37624890  0.85938982    -0.81200
Cd1844     Cd  0.83979139  0.37664593  0.83279523     1.59700
Cd1845     Cd  0.85622528  0.31674379  0.87564456     1.59600
O1846       O  0.85685577  0.34398642  0.80280450    -0.81200
O1847       O  0.83974003  0.35982989  0.87579813    -1.91700
Cd1848     Cd  0.79676709  0.36010118  0.89261309     1.59900
O1849       O  0.86564569  0.30201376  0.83111554    -0.81200
O1850       O  0.79340910  0.38751290  0.93170809    -0.79800
C1851       C  0.90856274  0.33288523  0.91963392     0.82700
C1852       C  0.88378702  0.42879131  0.84980119     0.82300
O1853       O  0.84118472  0.40592592  0.93464961    -0.78800
C1854       C  0.76942613  0.38444258  0.83132006     0.83200
O1855       O  0.89850386  0.36025117  0.92198662    -0.78900
C1856       C  0.86472645  0.31582332  0.80524999     0.83300
C1857       C  0.79536290  0.28983597  0.90151268     0.83600
O1858       O  0.82324236  0.28713706  0.89275854    -0.81300
C1859       C  0.68676688  0.07625507  0.68582525     0.79900
N1860       N  0.71382528  0.07743036  0.67036929    -0.78400
C1861       C  0.74089795  0.07661037  0.68582871     0.82300
N1862       N  0.74087626  0.07520928  0.71706438    -0.78400
C1863       C  0.71383223  0.07362827  0.73276652     0.82400
N1864       N  0.68680441  0.07487076  0.71704509    -0.80100
O1865       O  0.79267101  0.16974174  0.62665698    -0.78800
C1866       C  0.76915589  0.08415198  0.66927569     0.82200
O1867       O  0.88504545  0.13705311  0.68180312    -0.79900
O1868       O  0.85461399  0.03775324  0.64249019    -0.81400
O1869       O  0.82172483  0.09403967  0.55281983    -0.81200
O1870       O  0.81134302  0.16670367  0.57898480    -0.79800
Zn1871     Zn  0.81277584  0.13618486  0.65127286     1.55700
O1872       O  0.81231387  0.05234108  0.58133161    -0.81200
Cd1873     Cd  0.83818241  0.12720896  0.58249110     1.59700
Cd1874     Cd  0.88142315  0.11051049  0.64210012     1.59600
O1875       O  0.88245661  0.13703067  0.56736609    -0.81200
O1876       O  0.83832664  0.11053540  0.62556120    -1.91700
Cd1877     Cd  0.82165814  0.06748225  0.62566978     1.59900
O1878       O  0.91099080  0.12733976  0.60898157    -0.81200
O1879       O  0.78193445  0.06406992  0.65216880    -0.79800
C1880       C  0.86499513  0.15412283  0.69468585     0.82700
C1881       C  0.79448659  0.17964386  0.59917401     0.82300
O1882       O  0.77925300  0.11154160  0.67141001    -0.78800
C1883       C  0.81372927  0.06592071  0.55539144     0.83200
O1884       O  0.83755653  0.15621237  0.68471834    -0.78900
C1885       C  0.90840483  0.13561896  0.58094034     0.83300
C1886       C  0.88276770  0.04024880  0.65039380     0.83600
O1887       O  0.89647441  0.06613804  0.65154032    -0.81300
C1888       C  0.68710930  0.39306021  0.68616837     0.79900
N1889       N  0.68684621  0.39520802  0.71742642    -0.78400
C1890       C  0.71382039  0.39640403  0.73340866     0.82300
N1891       N  0.74100884  0.39468713  0.71790006    -0.78400
C1892       C  0.74128696  0.39314705  0.68668041     0.82400
N1893       N  0.71438602  0.39192733  0.67109415    -0.80100
C1894       C  0.77781064  0.26200141  0.59136677     0.79900
N1895       N  0.74656435  0.26194546  0.59021992    -0.78400
C1896       C  0.73086551  0.23488924  0.58900526     0.82300
N1897       N  0.74662436  0.20787005  0.59045600    -0.78400
C1898       C  0.77786636  0.20786709  0.59163800     0.82400
N1899       N  0.79329438  0.23495294  0.59238500    -0.80100
O1900       O  0.83668439  0.31268518  0.68404307    -0.78800
C1901       C  0.76954841  0.38565469  0.67012402     0.82200
O1902       O  0.81198793  0.30269459  0.57904105    -0.79900
O1903       O  0.81142401  0.41693779  0.58126161    -0.81400
O1904       O  0.89629406  0.40316209  0.65207399    -0.81200
O1905       O  0.88416397  0.33198759  0.68187920    -0.79800
Zn1906     Zn  0.81230520  0.33351222  0.65098051     1.55700
O1907       O  0.85475857  0.43169346  0.64200827    -0.81200
Cd1908     Cd  0.88119773  0.35882057  0.64237559     1.59700
Cd1909     Cd  0.83838759  0.34250219  0.58247760     1.59600
O1910       O  0.91128693  0.34201610  0.60971309    -0.81200
O1911       O  0.83819083  0.35908178  0.62552355    -1.91700
Cd1912     Cd  0.82149534  0.40208813  0.62564692     1.59900
O1913       O  0.88295438  0.33313438  0.56778465    -0.81200
O1914       O  0.78228419  0.40573120  0.65295712    -0.79800
C1915       C  0.79435048  0.29024510  0.59887859     0.82700
C1916       C  0.86399221  0.31471695  0.69430888     0.81500
O1917       O  0.77933781  0.35814850  0.67183308    -0.78800
C1918       C  0.88276229  0.42912308  0.65039959     0.83200
O1919       O  0.79176446  0.30055580  0.62613176    -0.78900
C1920       C  0.90883995  0.33415404  0.58155914     0.83300
C1921       C  0.81281253  0.40336492  0.55529462     0.83600
O1922       O  0.82129937  0.37538791  0.55269101    -0.81300
O1923       O  0.53058655  0.36216291  0.57748142    -0.78800
C1924       C  0.54414954  0.42917932  0.65012502     0.82200
O1925       O  0.63599194  0.38703401  0.56807691    -0.79900
O1926       O  0.63274577  0.38796675  0.68218629    -0.81400
O1927       O  0.56254431  0.30250744  0.66847271    -0.81200
O1928       O  0.53212856  0.31501349  0.59762951    -0.79800
Zn1929     Zn  0.56376984  0.38643154  0.59824180     1.55700
O1930       O  0.57239328  0.34407231  0.69700259    -0.81200
Cd1931     Cd  0.57194737  0.31774394  0.62406860     1.59700
Cd1932     Cd  0.63211106  0.36053352  0.60784034     1.59600
O1933       O  0.60452626  0.28774224  0.60689928    -0.81200
O1934       O  0.58895652  0.36066769  0.62419400    -1.91700
Cd1935     Cd  0.58850687  0.37736043  0.66720768     1.59900
O1936       O  0.64666531  0.31594237  0.59845632    -0.81200
O1937       O  0.56083149  0.41628455  0.67050086    -0.79800
C1938       C  0.61614130  0.40448564  0.55538338     0.82700
C1939       C  0.51992221  0.33505580  0.58004492     0.82300
O1940       O  0.54296978  0.41956358  0.62253834    -0.78800
C1941       C  0.56417179  0.31601565  0.69444893     0.83200
O1942       O  0.58876674  0.40682290  0.56539249    -0.78900
C1943       C  0.63274239  0.29012626  0.59919658     0.83300
C1944       C  0.65881332  0.38645338  0.66881334     0.83600
O1945       O  0.66162297  0.37764448  0.64095633    -0.81300
O1946       O  0.63546129  0.16907926  0.62748179    -0.78800
C1947       C  0.56259771  0.15425496  0.69470812     0.82200
O1948       O  0.64587500  0.06380439  0.65195333    -0.79900
O1949       O  0.53136839  0.06589995  0.65211553    -0.81400
O1950       O  0.54544779  0.13717563  0.56764889    -0.81200
O1951       O  0.61673880  0.16652014  0.57979674    -0.79800
Zn1952     Zn  0.61489802  0.13574198  0.65176368     1.55700
O1953       O  0.51675438  0.12696642  0.60902163    -0.81200
Cd1954     Cd  0.58966052  0.12717548  0.58290179     1.59700
Cd1955     Cd  0.60594599  0.06722684  0.62578960     1.59600
O1956       O  0.60607652  0.09415719  0.55305167    -0.81200
O1957       O  0.58934558  0.11029321  0.62586732    -1.91700
Cd1958     Cd  0.54625205  0.11031733  0.64232439     1.59900
O1959       O  0.61507135  0.05223188  0.58135732    -0.81200
O1960       O  0.54253169  0.13722926  0.68177546    -0.79800
C1961       C  0.65847404  0.08373312  0.66937102     0.82700
C1962       C  0.63371664  0.17916213  0.60008610     0.82300
O1963       O  0.59012789  0.15607881  0.68496840    -0.78800
C1964       C  0.51943620  0.13550604  0.58106416     0.83200
O1965       O  0.64816368  0.11099009  0.67193280    -0.78900
C1966       C  0.61384744  0.06596899  0.55548438     0.83300
C1967       C  0.54505666  0.03998260  0.65104126     0.83600
O1968       O  0.57314380  0.03744018  0.64292973    -0.81300
C1969       C  0.62368579  0.92103101  0.02714744     0.79900
N1970       N  0.62234159  0.90555828  0.50012302    -0.78400
C1971       C  0.62253765  0.92097907  0.47303110     0.82300
N1972       N  0.62351892  0.95223541  0.47299340    -0.78400
C1973       C  0.62531649  0.96800649  0.99998474     0.82400
N1974       N  0.62459263  0.95228893  0.02706046    -0.80100
C1975       C  0.80776523  0.54864686  0.02697763     0.79900
N1976       N  0.80488444  0.51747535  0.02709575    -0.78400
C1977       C  0.80319137  0.50171279  0.00003112     0.82300
N1978       N  0.80490071  0.51734177  0.47287479    -0.78400
C1979       C  0.80777401  0.54849964  0.47277562     0.82400
N1980       N  0.80940863  0.56379909  0.99983197    -0.80100
C1981       C  0.89993374  0.51179225  0.15652161     0.79900
N1982       N  0.88471255  0.98468642  0.15487824    -0.78400
C1983       C  0.89993664  0.95758406  0.15652995     0.82300
N1984       N  0.93109740  0.95759559  0.15943641    -0.78400
C1985       C  0.94679602  0.98471115  0.16114108     0.82400
N1986       N  0.93110195  0.51181875  0.15941773    -0.80100
C1987       C  0.52791147  0.51136097  0.34210153     0.79900
N1988       N  0.49667747  0.51163484  0.33968815    -0.78400
C1989       C  0.98071364  0.98466939  0.33869606     0.82300
N1990       N  0.49617119  0.95749594  0.34085747    -0.78400
C1991       C  0.52735129  0.95719151  0.34271719     0.82400
N1992       N  0.54297641  0.98408429  0.34370656    -0.80100
C1993       C  0.93728049  0.82798579  0.06434048     0.79900
N1994       N  0.93697904  0.82540213  0.03313979    -0.78400
C1995       C  0.96391355  0.82405972  0.01717443     0.82300
N1996       N  0.99111322  0.82596084  0.03257640    -0.78400
C1997       C  0.99145384  0.82796237  0.06373841     0.82400
N1998       N  0.96458281  0.82936880  0.07939656    -0.80100
C1999       C  0.93677235  0.64109053  0.43601118     0.79900
N2000       N  0.93680069  0.64426427  0.46716145    -0.78400
C2001       C  0.96394312  0.64612742  0.48284071     0.82300
N2002       N  0.99104612  0.64426268  0.46711518    -0.78400
C2003       C  0.99099096  0.64108588  0.43596427     0.82400
N2004       N  0.96386417  0.63930912  0.42080052    -0.80100
C2005       C  0.80640389  0.92060984  0.02689257     0.79900
N2006       N  0.80412240  0.95185581  0.02706126    -0.78400
C2007       C  0.80287529  0.96774372  0.50003708     0.82300
N2008       N  0.80465810  0.95218264  0.47290859    -0.78400
C2009       C  0.80635870  0.92098330  0.47272714     0.82400
N2010       N  0.80763937  0.90545965  0.49966562    -0.80100
C2011       C  0.61975714  0.54870766  0.47279929     0.79900
N2012       N  0.61806241  0.56398289  0.99987294    -0.78400
C2013       C  0.61978564  0.54879602  0.02700175     0.82300
N2014       N  0.62283086  0.51765109  0.02705026    -0.78400
C2015       C  0.62455994  0.50193643  0.99996666     0.82400
N2016       N  0.62277544  0.51757064  0.47283902    -0.80100
C2017       C  0.89955668  0.51136358  0.34224548     0.79900
N2018       N  0.93080087  0.51165717  0.33984281    -0.78400
C2019       C  0.94676211  0.98468315  0.33868796     0.82300
N2020       N  0.93130380  0.95752186  0.34065940    -0.78400
C2021       C  0.90013227  0.95719146  0.34248464     0.82400
N2022       N  0.88449275  0.98407518  0.34366823    -0.80100
C2023       C  0.52785413  0.51155977  0.15740966     0.79900
N2024       N  0.49663306  0.51170325  0.15991752    -0.78400
C2025       C  0.98076970  0.98467377  0.16128317     0.82300
N2026       N  0.49633740  0.95754264  0.15939203    -0.78400
C2027       C  0.52753178  0.95740297  0.15744880     0.82400
N2028       N  0.54301424  0.98435212  0.15604752    -0.80100
C2029       C  0.93671182  0.82525384  0.43627770     0.79900
N2030       N  0.93672401  0.82448994  0.46754339    -0.78400
C2031       C  0.96376682  0.82338934  0.48327655     0.82300
N2032       N  0.99078711  0.82461472  0.46753447    -0.78400
C2033       C  0.99084421  0.82540201  0.43629743     0.82400
N2034       N  0.96378446  0.82600914  0.42081962    -0.80100
C2035       C  0.93683670  0.64185988  0.06374993     0.79900
N2036       N  0.93684621  0.64468557  0.03257081    -0.78400
C2037       C  0.96396639  0.64635403  0.01686598     0.82300
N2038       N  0.99107927  0.64462129  0.03260554    -0.78400
C2039       C  0.99104488  0.64179225  0.06379389     0.82400
N2040       N  0.96392912  0.64022055  0.07898308    -0.80100
C2041       C  0.64971209  0.76137116  0.40822519     0.79900
N2042       N  0.63469029  0.73408877  0.40646321    -0.78400
C2043       C  0.65033508  0.70720953  0.40738199     0.82300
N2044       N  0.68150982  0.70754371  0.40934738    -0.78400
C2045       C  0.69693997  0.73471646  0.41166732     0.82400
N2046       N  0.68094624  0.76168281  0.41073494    -0.80100
C2047       C  0.64986130  0.76164965  0.09294398     0.79900
N2048       N  0.63468622  0.73442470  0.09422158    -0.78400
C2049       C  0.65022020  0.70748366  0.09288816     0.82300
N2050       N  0.68141015  0.70767316  0.09107884    -0.78400
C2051       C  0.69694541  0.73480875  0.08929707     0.82400
N2052       N  0.68107823  0.76181227  0.09056209    -0.80100
C2053       C  0.55495215  0.67091054  0.22286306     0.79900
N2054       N  0.55381401  0.70216938  0.22287638    -0.78400
C2055       C  0.55248325  0.71791702  0.24990996     0.82300
N2056       N  0.55384633  0.70216840  0.27696399    -0.78400
C2057       C  0.55499952  0.67091141  0.27699143     0.82400
N2058       N  0.55585428  0.65547709  0.24993212    -0.80100
O2059       O  0.59022206  0.65594894  0.31485235    -0.78800
C2060       C  0.63389514  0.67887692  0.39990415     0.82200
O2061       O  0.64584172  0.56341319  0.34765325    -0.79900
O2062       O  0.60610259  0.59397668  0.44663774    -0.81400
O2063       O  0.51675128  0.62631287  0.39076424    -0.81200
O2064       O  0.54256176  0.63725006  0.31809404    -0.79800
Zn2065     Zn  0.61506864  0.63550720  0.34802415     1.55700
O2066       O  0.54542845  0.63678687  0.43208540    -0.81200
Cd2067     Cd  0.54631830  0.61005091  0.35734748     1.59700
Cd2068     Cd  0.60596892  0.56691406  0.37391938     1.59600
O2069       O  0.53153758  0.56569032  0.34720691    -0.81200
O2070       O  0.58941973  0.61002043  0.37383096    -1.91700
Cd2071     Cd  0.58965760  0.62691554  0.41679545     1.59900
O2072       O  0.57319448  0.53715648  0.35670695    -0.81200
O2073       O  0.61671102  0.66624553  0.42001780    -0.79800
C2074       C  0.65839094  0.58329413  0.33013431     0.82700
C2075       C  0.56265771  0.65423529  0.30515622     0.82300
O2076       O  0.63582235  0.66881515  0.37249352    -0.78800
C2077       C  0.51940695  0.63490316  0.41870522     0.83200
O2078       O  0.64814992  0.61059119  0.32763720    -0.78900
C2079       C  0.54517319  0.53974901  0.34839724     0.83300
C2080       C  0.61383007  0.56578032  0.44426242     0.83600
O2081       O  0.61502480  0.55197861  0.41842293    -0.81300
C2082       C  0.87245858  0.67063214  0.27706817     0.79900
N2083       N  0.87369918  0.70187879  0.27708514    -0.78400
C2084       C  0.87511918  0.71761839  0.25006045     0.82300
N2085       N  0.87381294  0.70189889  0.22300892    -0.78400
C2086       C  0.87257895  0.67065959  0.22294111     0.82400
N2087       N  0.87159105  0.65519841  0.24999247    -0.80100
C2088       C  0.68664286  0.57575210  0.31360267     0.79900
N2089       N  0.68671527  0.57465688  0.28235713    -0.78400
C2090       C  0.71378445  0.57346852  0.26666942     0.82300
N2091       N  0.74078630  0.57485949  0.28242831    -0.78400
C2092       C  0.74077259  0.57596549  0.31366510     0.82400
N2093       N  0.71368849  0.57669578  0.32909484    -0.80100
O2094       O  0.79198841  0.66900050  0.37269580    -0.78800
C2095       C  0.86478339  0.65402116  0.30522112     0.82200
O2096       O  0.78161241  0.56358091  0.34760351    -0.79900
O2097       O  0.89595254  0.56568161  0.34756160    -0.81400
O2098       O  0.88231390  0.63665998  0.43225175    -0.81200
O2099       O  0.81106363  0.66626816  0.42024212    -0.79800
Zn2100     Zn  0.81243292  0.63563091  0.34819229     1.55700
O2101       O  0.91087481  0.62646601  0.39081047    -0.81200
Cd2102     Cd  0.83802665  0.62686947  0.41695194     1.59700
Cd2103     Cd  0.82145809  0.56698933  0.37389250     1.59600
O2104       O  0.82155582  0.59378988  0.44667394    -0.81200
O2105       O  0.83808172  0.61008057  0.37395552    -1.91700
Cd2106     Cd  0.88117881  0.61007222  0.35754226     1.59900
O2107       O  0.81235717  0.55191152  0.41835699    -0.81200
O2108       O  0.88485966  0.63703684  0.31817851    -0.79800
C2109       C  0.76897010  0.58354317  0.33025562     0.82700
C2110       C  0.79395101  0.67899742  0.40012098     0.82300
O2111       O  0.83725192  0.65588394  0.31495815    -0.78800
C2112       C  0.90830165  0.63491950  0.41879726     0.83200
O2113       O  0.77915296  0.61087781  0.32789487    -0.78900
C2114       C  0.81369336  0.56562469  0.44424105     0.83300
C2115       C  0.88227958  0.53975240  0.34856970     0.83600
O2116       O  0.85419295  0.53717418  0.35666908    -0.81300
C2117       C  0.55780304  0.79864917  0.27714723     0.79900
N2118       N  0.55475506  0.76750915  0.27706334    -0.78400
C2119       C  0.55312412  0.75187901  0.24992635     0.82300
N2120       N  0.55501823  0.76761770  0.22283891    -0.78400
C2121       C  0.55808872  0.79877271  0.22291661     0.82400
N2122       N  0.55966702  0.81393381  0.25006988    -0.80100
O2123       O  0.58715121  0.90587002  0.43531413    -0.78800
C2124       C  0.54379220  0.92884548  0.35015459     0.82200
O2125       O  0.53172883  0.81318740  0.40232816    -0.79900
O2126       O  0.57139715  0.84392150  0.30340002    -0.81400
O2127       O  0.66084521  0.87611587  0.35951074    -0.81200
O2128       O  0.63484330  0.88726878  0.43202164    -0.79800
Zn2129     Zn  0.56236704  0.88538191  0.40204190     1.55700
O2130       O  0.63225728  0.88646066  0.31809275    -0.81200
Cd2131     Cd  0.63115760  0.85999992  0.39288965     1.59700
Cd2132     Cd  0.57162081  0.81678461  0.37612253     1.59600
O2133       O  0.64597519  0.81571458  0.40325048    -0.81200
O2134       O  0.58809546  0.85992517  0.37627975    -1.91700
Cd2135     Cd  0.58795393  0.87681135  0.33329940     1.59900
O2136       O  0.60445592  0.78709636  0.39339525    -0.81200
O2137       O  0.56108412  0.91629299  0.33008598    -0.79800
C2138       C  0.51905063  0.83305948  0.41974847     0.82700
C2139       C  0.61474261  0.90421298  0.44497179     0.82300
O2140       O  0.54170310  0.91867342  0.37751259    -0.78800
C2141       C  0.65824877  0.88457654  0.33152275     0.83200
O2142       O  0.52920257  0.86039746  0.42223888    -0.78900
C2143       C  0.63241790  0.78974341  0.40190964     0.83300
C2144       C  0.56369669  0.81570757  0.30573042     0.83600
O2145       O  0.56255281  0.80186786  0.33156759    -0.81300
C2146       C  0.77808336  0.76149121  0.40798537     0.79900
N2147       N  0.79314732  0.73421919  0.40641665    -0.78400
C2148       C  0.77754708  0.70732806  0.40759523     0.82300
N2149       N  0.74638073  0.70761164  0.40956634    -0.78400
C2150       C  0.73090426  0.73477175  0.41167964     0.82400
N2151       N  0.74685127  0.76175752  0.41053232    -0.80100
C2152       C  0.68669515  0.89061813  0.31426472     0.79900
N2153       N  0.68661962  0.89390370  0.28311778    -0.78400
C2154       C  0.71373202  0.89575911  0.26740656     0.82300
N2155       N  0.74085640  0.89382013  0.28307020    -0.78400
C2156       C  0.74090994  0.89052797  0.31418870     0.82400
N2157       N  0.71382399  0.88873852  0.32942013    -0.80100
C2158       C  0.87101074  0.79864945  0.27680461     0.79900
N2159       N  0.87345110  0.76742938  0.27699734    -0.78400
C2160       C  0.87480034  0.75154565  0.25000102     0.82300
N2161       N  0.87303864  0.76706270  0.22285640    -0.78400
C2162       C  0.87117536  0.79824640  0.22264275     0.82400
N2163       N  0.86976121  0.81379604  0.24956502    -0.80100
O2164       O  0.88624922  0.91836265  0.37702110    -0.78800
C2165       C  0.81368289  0.90441479  0.44447285     0.82200
O2166       O  0.89594232  0.81303441  0.40213923    -0.79900
O2167       O  0.78189136  0.81584390  0.40305340    -0.81400
O2168       O  0.79535370  0.88604364  0.31771147    -0.81200
O2169       O  0.86628128  0.91640119  0.32980402    -0.79800
Zn2170     Zn  0.86558576  0.88519286  0.40150218     1.55700
O2171       O  0.76695623  0.87624883  0.35938991    -0.81200
Cd2172     Cd  0.83979138  0.87664593  0.33279533     1.59700
Cd2173     Cd  0.85622525  0.81674379  0.37564458     1.59600
O2174       O  0.85685566  0.84398666  0.30280457    -0.81200
O2175       O  0.83974003  0.85982990  0.37579819    -1.91700
Cd2176     Cd  0.79676709  0.86010120  0.39261322     1.59900
O2177       O  0.86564567  0.80201389  0.33111551    -0.81200
O2178       O  0.79340908  0.88751281  0.43170801    -0.79800
C2179       C  0.90856266  0.83288523  0.41963378     0.82700
C2180       C  0.88378706  0.92879129  0.34980141     0.82300
O2181       O  0.84118479  0.90592585  0.43464957    -0.78800
C2182       C  0.76942603  0.88444277  0.33131991     0.83200
O2183       O  0.89850388  0.86025124  0.42198670    -0.78900
C2184       C  0.86472637  0.81582308  0.30524984     0.83300
C2185       C  0.79536297  0.78983629  0.40151273     0.83600
O2186       O  0.82324240  0.78713705  0.39275857    -0.81300
C2187       C  0.68676686  0.57625506  0.18582496     0.79900
N2188       N  0.71382547  0.57743039  0.17036950    -0.78400
C2189       C  0.74089781  0.57661038  0.18582899     0.82300
N2190       N  0.74087631  0.57520935  0.21706423    -0.78400
C2191       C  0.71383237  0.57362819  0.23276656     0.82400
N2192       N  0.68680434  0.57487079  0.21704533    -0.80100
O2193       O  0.79267096  0.66974184  0.12665709    -0.78800
C2194       C  0.76915585  0.58415189  0.16927557     0.82200
O2195       O  0.88504542  0.63705319  0.18180318    -0.79900
O2196       O  0.85461394  0.53775322  0.14249018    -0.81400
O2197       O  0.82172474  0.59403991  0.05281999    -0.81200
O2198       O  0.81134289  0.66670370  0.07898485    -0.79800
Zn2199     Zn  0.81277586  0.63618487  0.15127287     1.55700
O2200       O  0.81231383  0.55234123  0.08133160    -0.81200
Cd2201     Cd  0.83818230  0.62720897  0.08249118     1.59700
Cd2202     Cd  0.88142323  0.61051053  0.14210018     1.59600
O2203       O  0.88245661  0.63703069  0.06736618    -0.81200
O2204       O  0.83832665  0.61053540  0.12556123    -1.91700
Cd2205     Cd  0.82165818  0.56748229  0.12566978     1.59900
O2206       O  0.91099071  0.62733975  0.10898174    -0.81200
O2207       O  0.78193439  0.56407000  0.15216880    -0.79800
C2208       C  0.86499530  0.65412269  0.19468573     0.82700
C2209       C  0.79448657  0.67964381  0.09917388     0.82300
O2210       O  0.77925306  0.61154176  0.17141015    -0.78800
C2211       C  0.81372916  0.56592024  0.05539141     0.83200
O2212       O  0.83755649  0.65621246  0.18471831    -0.78900
C2213       C  0.90840481  0.63561899  0.08094032     0.83300
C2214       C  0.88276760  0.54024873  0.15039370     0.83600
O2215       O  0.89647433  0.56613810  0.15154047    -0.81300
C2216       C  0.68710921  0.89306015  0.18616830     0.79900
N2217       N  0.68684628  0.89520807  0.21742663    -0.78400
C2218       C  0.71382039  0.89640397  0.23340864     0.82300
N2219       N  0.74100892  0.89468715  0.21789995    -0.78400
C2220       C  0.74128673  0.89314703  0.18668042     0.82400
N2221       N  0.71438635  0.89192735  0.17109415    -0.80100
C2222       C  0.77781045  0.76200126  0.09136675     0.79900
N2223       N  0.74656421  0.76194554  0.09021986    -0.78400
C2224       C  0.73086562  0.73488930  0.08900525     0.82300
N2225       N  0.74662431  0.70786996  0.09045604    -0.78400
C2226       C  0.77786605  0.70786740  0.09163803     0.82400
N2227       N  0.79329458  0.73495292  0.09238498    -0.80100
O2228       O  0.83668440  0.81268521  0.18404293    -0.78800
C2229       C  0.76954839  0.88565474  0.17012399     0.82200
O2230       O  0.81198794  0.80269464  0.07904112    -0.79900
O2231       O  0.81142398  0.91693773  0.08126149    -0.81400
O2232       O  0.89629417  0.90316195  0.15207394    -0.81200
O2233       O  0.88416382  0.83198766  0.18187913    -0.79800
Zn2234     Zn  0.81230520  0.83351222  0.15098047     1.55700
O2235       O  0.85475870  0.93169338  0.14200838    -0.81200
Cd2236     Cd  0.88119772  0.85882059  0.14237553     1.59700
Cd2237     Cd  0.83838761  0.84250221  0.08247752     1.59600
O2238       O  0.91128694  0.84201612  0.10971308    -0.81200
O2239       O  0.83819082  0.85908180  0.12552351    -1.91700
Cd2240     Cd  0.82149527  0.90208819  0.12564688     1.59900
O2241       O  0.88295436  0.83313444  0.06778467    -0.81200
O2242       O  0.78228413  0.90573119  0.15295718    -0.79800
C2243       C  0.79435050  0.79024512  0.09887847     0.82700
C2244       C  0.86399233  0.81471670  0.19430901     0.81500
O2245       O  0.77933784  0.85814849  0.17183306    -0.78800
C2246       C  0.88276191  0.92912332  0.15039944     0.83200
O2247       O  0.79176448  0.80055578  0.12613167    -0.78900
C2248       C  0.90883991  0.83415408  0.08155905     0.83300
C2249       C  0.81281250  0.90336512  0.05529477     0.83600
O2250       O  0.82129942  0.87538787  0.05269092    -0.81300
O2251       O  0.53058655  0.86216294  0.07748145    -0.78800
C2252       C  0.54414931  0.92917948  0.15012485     0.82200
O2253       O  0.63599219  0.88703383  0.06807699    -0.79900
O2254       O  0.63274583  0.88796680  0.18218628    -0.81400
O2255       O  0.56254434  0.80250762  0.16847266    -0.81200
O2256       O  0.53212864  0.81501348  0.09762950    -0.79800
Zn2257     Zn  0.56376989  0.88643155  0.09824186     1.55700
O2258       O  0.57239340  0.84407250  0.19700249    -0.81200
Cd2259     Cd  0.57194740  0.81774394  0.12406857     1.59700
Cd2260     Cd  0.63211108  0.86053345  0.10784033     1.59600
O2261       O  0.60452623  0.78774229  0.10689934    -0.81200
O2262       O  0.58895655  0.86066769  0.12419407    -1.91700
Cd2263     Cd  0.58850686  0.87736046  0.16720778     1.59900
O2264       O  0.64666543  0.81594253  0.09845625    -0.81200
O2265       O  0.56083151  0.91628438  0.17050113    -0.79800
C2266       C  0.61614107  0.90448596  0.05538321     0.82700
C2267       C  0.51992226  0.83505583  0.08004492     0.82300
O2268       O  0.54296988  0.91956361  0.12253861    -0.78800
C2269       C  0.56417167  0.81601533  0.19444927     0.83200
O2270       O  0.58876689  0.90682292  0.06539257    -0.78900
C2271       C  0.63274225  0.79012584  0.09919658     0.83300
C2272       C  0.65881340  0.88645344  0.16881342     0.83600
O2273       O  0.66162293  0.87764426  0.14095626    -0.81300
O2274       O  0.63546131  0.66907922  0.12748187    -0.78800
C2275       C  0.56259774  0.65425504  0.19470823     0.82200
O2276       O  0.64587504  0.56380443  0.15195325    -0.79900
O2277       O  0.53136848  0.56589996  0.15211554    -0.81400
O2278       O  0.54544788  0.63717569  0.06764884    -0.81200
O2279       O  0.61673903  0.66652019  0.07979709    -0.79800
Zn2280     Zn  0.61489804  0.63574203  0.15176377     1.55700
O2281       O  0.51675445  0.62696643  0.10902164    -0.81200
Cd2282     Cd  0.58966054  0.62717550  0.08290183     1.59700
Cd2283     Cd  0.60594601  0.56722687  0.12578956     1.59600
O2284       O  0.60607650  0.59415738  0.05305164    -0.81200
O2285       O  0.58934561  0.61029324  0.12586737    -1.91700
Cd2286     Cd  0.54625208  0.61031738  0.14232436     1.59900
O2287       O  0.61507128  0.55223191  0.08135729    -0.81200
O2288       O  0.54253167  0.63722926  0.18177537    -0.79800
C2289       C  0.65847398  0.58373317  0.16937126     0.82700
C2290       C  0.63371636  0.67916218  0.10008581     0.82300
O2291       O  0.59012795  0.65607882  0.18496840    -0.78800
C2292       C  0.51943609  0.63550594  0.08106412     0.83200
O2293       O  0.64816368  0.61099008  0.17193290    -0.78900
C2294       C  0.61384755  0.56596861  0.05548451     0.83300
C2295       C  0.54505663  0.53998245  0.15104119     0.83600
O2296       O  0.57314387  0.53744022  0.14292966    -0.81300
C2297       C  0.62368577  0.92103096  0.52714735     0.79900
N2298       N  0.62234152  0.90555823  0.00012291    -0.78400
C2299       C  0.62253768  0.92097909  0.97303134     0.82300
N2300       N  0.62351887  0.95223530  0.97299278    -0.78400
C2301       C  0.62531642  0.96800658  0.49998359     0.82400
N2302       N  0.62459269  0.95228881  0.52706092    -0.80100
C2303       C  0.80776518  0.54864635  0.52697778     0.79900
N2304       N  0.80488445  0.51747560  0.52709556    -0.78400
C2305       C  0.80319130  0.50171241  0.50003147     0.82300
N2306       N  0.80490066  0.51734143  0.97287501    -0.78400
C2307       C  0.80777413  0.54850026  0.97277569     0.82400
N2308       N  0.80940872  0.56379932  0.49983181    -0.80100
C2309       C  0.89993341  0.51179187  0.65652147     0.79900
N2310       N  0.88471280  0.98468639  0.65487828    -0.78400
C2311       C  0.89993648  0.95758395  0.65652986     0.82300
N2312       N  0.93109720  0.95759524  0.65943632    -0.78400
C2313       C  0.94679612  0.98471180  0.66114102     0.82400
N2314       N  0.93110223  0.51181907  0.65941766    -0.80100
C2315       C  0.52791127  0.51136147  0.84210154     0.79900
N2316       N  0.49667774  0.51163463  0.83968810    -0.78400
C2317       C  0.98071387  0.98466961  0.83869605     0.82300
N2318       N  0.49617124  0.95749589  0.84085745    -0.78400
C2319       C  0.52735133  0.95719159  0.84271723     0.82400
N2320       N  0.54297637  0.98408440  0.84370641    -0.80100
C2321       C  0.93728064  0.82798570  0.56434046     0.79900
N2322       N  0.93697874  0.82540227  0.53314000    -0.78400
C2323       C  0.96391409  0.82405963  0.51717453     0.82300
N2324       N  0.99111314  0.82596096  0.53257628    -0.78400
C2325       C  0.99145372  0.82796231  0.56373858     0.82400
N2326       N  0.96458285  0.82936891  0.57939655    -0.80100
C2327       C  0.93677239  0.64109052  0.93601120     0.79900
N2328       N  0.93680063  0.64426430  0.96716144    -0.78400
C2329       C  0.96394320  0.64612740  0.98284068     0.82300
N2330       N  0.99104624  0.64426270  0.96711515    -0.78400
C2331       C  0.99099061  0.64108592  0.93596469     0.82400
N2332       N  0.96386405  0.63930923  0.92080033    -0.80100
C2333       C  0.80640386  0.92060981  0.52689235     0.79900
N2334       N  0.80412246  0.95185590  0.52706151    -0.78400
C2335       C  0.80287527  0.96774433  0.00003731     0.82300
N2336       N  0.80465813  0.95218255  0.97290848    -0.78400
C2337       C  0.80635845  0.92098320  0.97272735     0.82400
N2338       N  0.80763937  0.90545968  0.99966534    -0.80100
C2339       C  0.61975706  0.54870757  0.97279862     0.79900
N2340       N  0.61806236  0.56398305  0.49987236    -0.78400
C2341       C  0.61978587  0.54879557  0.52700251     0.82300
N2342       N  0.62283078  0.51765106  0.52704967    -0.78400
C2343       C  0.62456007  0.50193622  0.49996771     0.82400
N2344       N  0.62277546  0.51757061  0.97283943    -0.80100
C2345       C  0.89955692  0.51136350  0.84224536     0.79900
N2346       N  0.93080061  0.51165734  0.83984286    -0.78400
C2347       C  0.94676205  0.98468285  0.83868792     0.82300
N2348       N  0.93130389  0.95752199  0.84065944    -0.78400
C2349       C  0.90013209  0.95719140  0.84248467     0.82400
N2350       N  0.88449290  0.98407513  0.84366823    -0.80100
C2351       C  0.52785396  0.51156030  0.65740975     0.79900
N2352       N  0.49663305  0.51170300  0.65991750    -0.78400
C2353       C  0.98076946  0.98467332  0.66128318     0.82300
N2354       N  0.49633724  0.95754293  0.65939190    -0.78400
C2355       C  0.52753197  0.95740286  0.65744878     0.82400
N2356       N  0.54301421  0.98435218  0.65604753    -0.80100
C2357       C  0.93671211  0.82525375  0.93627769     0.79900
N2358       N  0.93672389  0.82448999  0.96754350    -0.78400
C2359       C  0.96376731  0.82338936  0.98327656     0.82300
N2360       N  0.99078681  0.82461454  0.96753441    -0.78400
C2361       C  0.99084436  0.82540202  0.93629749     0.82400
N2362       N  0.96378439  0.82600907  0.92081951    -0.80100
C2363       C  0.93683720  0.64186000  0.56374959     0.79900
N2364       N  0.93684596  0.64468563  0.53257093    -0.78400
C2365       C  0.96396672  0.64635410  0.51686608     0.82300
N2366       N  0.99107922  0.64462135  0.53260538    -0.78400
C2367       C  0.99104491  0.64179231  0.56379393     0.82400
N2368       N  0.96392892  0.64022065  0.57898320    -0.80100
C2369       C  0.64971227  0.76137129  0.90822529     0.79900
N2370       N  0.63469013  0.73408853  0.90646322    -0.78400
C2371       C  0.65033522  0.70720965  0.90738195     0.82300
N2372       N  0.68150979  0.70754385  0.90934739    -0.78400
C2373       C  0.69694003  0.73471644  0.91166727     0.82400
N2374       N  0.68094629  0.76168273  0.91073497    -0.80100
C2375       C  0.64986144  0.76164908  0.59294398     0.79900
N2376       N  0.63468613  0.73442480  0.59422147    -0.78400
C2377       C  0.65021990  0.70748372  0.59288821     0.82300
N2378       N  0.68141043  0.70767323  0.59107877    -0.78400
C2379       C  0.69694491  0.73480819  0.58929716     0.82400
N2380       N  0.68107827  0.76181279  0.59056200    -0.80100
C2381       C  0.55495204  0.67091034  0.72286303     0.79900
N2382       N  0.55381398  0.70216949  0.72287645    -0.78400
C2383       C  0.55248316  0.71791714  0.74990980     0.82300
N2384       N  0.55384641  0.70216823  0.77696412    -0.78400
C2385       C  0.55499964  0.67091168  0.77699161     0.82400
N2386       N  0.55585431  0.65547701  0.74993199    -0.80100
O2387       O  0.59022231  0.65594899  0.81485246    -0.78800
C2388       C  0.63389481  0.67887683  0.89990449     0.82200
O2389       O  0.64584180  0.56341338  0.84765308    -0.79900
O2390       O  0.60610259  0.59397674  0.94663772    -0.81400
O2391       O  0.51675132  0.62631295  0.89076428    -0.81200
O2392       O  0.54256165  0.63724991  0.81809411    -0.79800
Zn2393     Zn  0.61506860  0.63550722  0.84802420     1.55700
O2394       O  0.54542825  0.63678677  0.93208544    -0.81200
Cd2395     Cd  0.54631834  0.61005101  0.85734737     1.59700
Cd2396     Cd  0.60596895  0.56691410  0.87391925     1.59600
O2397       O  0.53153765  0.56569048  0.84720681    -0.81200
O2398       O  0.58941975  0.61002043  0.87383096    -1.91700
Cd2399     Cd  0.58965763  0.62691546  0.91679549     1.59900
O2400       O  0.57319464  0.53715663  0.85670693    -0.81200
O2401       O  0.61671123  0.66624563  0.92001751    -0.79800
C2402       C  0.65839083  0.58329385  0.83013450     0.82700
C2403       C  0.56265763  0.65423542  0.80515609     0.82300
O2404       O  0.63582236  0.66881505  0.87249346    -0.78800
C2405       C  0.51940718  0.63490330  0.91870506     0.83200
O2406       O  0.64815001  0.61059137  0.82763709    -0.78900
C2407       C  0.54517329  0.53974872  0.84839715     0.83300
C2408       C  0.61383000  0.56578041  0.94426254     0.83600
O2409       O  0.61502486  0.55197875  0.91842302    -0.81300
C2410       C  0.87245849  0.67063209  0.77706836     0.79900
N2411       N  0.87369914  0.70187911  0.77708485    -0.78400
C2412       C  0.87511915  0.71761830  0.75006111     0.82300
N2413       N  0.87381290  0.70189852  0.72300871    -0.78400
C2414       C  0.87257898  0.67065963  0.72294088     0.82400
N2415       N  0.87159099  0.65519838  0.74999240    -0.80100
C2416       C  0.68664276  0.57575243  0.81360238     0.79900
N2417       N  0.68671550  0.57465689  0.78235717    -0.78400
C2418       C  0.71378406  0.57346860  0.76666954     0.82300
N2419       N  0.74078631  0.57485959  0.78242801    -0.78400
C2420       C  0.74077278  0.57596563  0.81366558     0.82400
N2421       N  0.71368859  0.57669583  0.82909467    -0.80100
O2422       O  0.79198842  0.66900034  0.87269541    -0.78800
C2423       C  0.86478368  0.65402105  0.80522138     0.82200
O2424       O  0.78161236  0.56358071  0.84760357    -0.79900
O2425       O  0.89595246  0.56568153  0.84756162    -0.81400
O2426       O  0.88231392  0.63665992  0.93225176    -0.81200
O2427       O  0.81106354  0.66626806  0.92024206    -0.79800
Zn2428     Zn  0.81243294  0.63563095  0.84819235     1.55700
O2429       O  0.91087480  0.62646602  0.89081043    -0.81200
Cd2430     Cd  0.83802658  0.62686942  0.91695196     1.59700
Cd2431     Cd  0.82145797  0.56698924  0.87389255     1.59600
O2432       O  0.82155574  0.59378984  0.94667394    -0.81200
O2433       O  0.83808167  0.61008051  0.87395557    -1.91700
Cd2434     Cd  0.88117871  0.61007218  0.85754231     1.59900
O2435       O  0.81235721  0.55191163  0.91835696    -0.81200
O2436       O  0.88485946  0.63703699  0.81817848    -0.79800
C2437       C  0.76897033  0.58354366  0.83025556     0.82700
C2438       C  0.79395100  0.67899781  0.90012143     0.82300
O2439       O  0.83725167  0.65588402  0.81495821    -0.78800
C2440       C  0.90830159  0.63491954  0.91879739     0.83200
O2441       O  0.77915293  0.61087764  0.82789495    -0.78900
C2442       C  0.81369309  0.56562434  0.94424128     0.83300
C2443       C  0.88227963  0.53975249  0.84856978     0.83600
O2444       O  0.85419288  0.53717415  0.85666912    -0.81300
C2445       C  0.55780294  0.79864864  0.77714712     0.79900
N2446       N  0.55475499  0.76750946  0.77706331    -0.78400
C2447       C  0.55312409  0.75187853  0.74992672     0.82300
N2448       N  0.55501825  0.76761792  0.72283877    -0.78400
C2449       C  0.55808885  0.79877262  0.72291652     0.82400
N2450       N  0.55966694  0.81393384  0.75006993    -0.80100
O2451       O  0.58715110  0.90586998  0.93531392    -0.78800
C2452       C  0.54379195  0.92884567  0.85015461     0.82200
O2453       O  0.53172882  0.81318724  0.90232797    -0.79900
O2454       O  0.57139698  0.84392145  0.80339994    -0.81400
O2455       O  0.66084516  0.87611589  0.85951076    -0.81200
O2456       O  0.63484314  0.88726875  0.93202168    -0.79800
Zn2457     Zn  0.56236708  0.88538184  0.90204184     1.55700
O2458       O  0.63225707  0.88646052  0.81809267    -0.81200
Cd2459     Cd  0.63115763  0.85999995  0.89288954     1.59700
Cd2460     Cd  0.57162075  0.81678451  0.87612250     1.59600
O2461       O  0.64597514  0.81571465  0.90325043    -0.81200
O2462       O  0.58809546  0.85992510  0.87627970    -1.91700
Cd2463     Cd  0.58795386  0.87681131  0.83329931     1.59900
O2464       O  0.60445573  0.78709648  0.89339535    -0.81200
O2465       O  0.56108429  0.91629295  0.83008581    -0.79800
C2466       C  0.51905044  0.83305939  0.91974864     0.82700
C2467       C  0.61474298  0.90421303  0.94497187     0.82300
O2468       O  0.54170304  0.91867344  0.87751241    -0.78800
C2469       C  0.65824915  0.88457653  0.83152278     0.83200
O2470       O  0.52920273  0.86039738  0.92223886    -0.78900
C2471       C  0.63241805  0.78974321  0.90190957     0.83300
C2472       C  0.56369658  0.81570763  0.80573038     0.83600
O2473       O  0.56255281  0.80186773  0.83156764    -0.81300
C2474       C  0.77808352  0.76149131  0.90798517     0.79900
N2475       N  0.79314714  0.73421943  0.90641671    -0.78400
C2476       C  0.77754722  0.70732763  0.90759512     0.82300
N2477       N  0.74638040  0.70761171  0.90956642    -0.78400
C2478       C  0.73090430  0.73477179  0.91167957     0.82400
N2479       N  0.74685131  0.76175740  0.91053233    -0.80100
C2480       C  0.68669472  0.89061811  0.81426439     0.79900
N2481       N  0.68661993  0.89390369  0.78311775    -0.78400
C2482       C  0.71373101  0.89575907  0.76740660     0.82300
N2483       N  0.74085678  0.89382021  0.78307028    -0.78400
C2484       C  0.74090976  0.89052805  0.81418878     0.82400
N2485       N  0.71382423  0.88873857  0.82942014    -0.80100
C2486       C  0.87101087  0.79864947  0.77680442     0.79900
N2487       N  0.87345104  0.76742920  0.77699746    -0.78400
C2488       C  0.87480035  0.75154574  0.75000060     0.82300
N2489       N  0.87303855  0.76706299  0.72285652    -0.78400
C2490       C  0.87117546  0.79824590  0.72264270     0.82400
N2491       N  0.86976115  0.81379621  0.74956536    -0.80100
O2492       O  0.88624923  0.91836254  0.87702110    -0.78800
C2493       C  0.81368312  0.90441471  0.94447237     0.82200
O2494       O  0.89594242  0.81303438  0.90213930    -0.79900
O2495       O  0.78189124  0.81584405  0.90305332    -0.81400
O2496       O  0.79535365  0.88604380  0.81771134    -0.81200
O2497       O  0.86628140  0.91640135  0.82980419    -0.79800
Zn2498     Zn  0.86558572  0.88519281  0.90150217     1.55700
O2499       O  0.76695611  0.87624879  0.85938996    -0.81200
Cd2500     Cd  0.83979133  0.87664596  0.83279522     1.59700
Cd2501     Cd  0.85622532  0.81674378  0.87564456     1.59600
O2502       O  0.85685569  0.84398656  0.80280448    -0.81200
O2503       O  0.83974000  0.85982987  0.87579812    -1.91700
Cd2504     Cd  0.79676704  0.86010112  0.89261307     1.59900
O2505       O  0.86564582  0.80201373  0.83111553    -0.81200
O2506       O  0.79340891  0.88751293  0.93170808    -0.79800
C2507       C  0.90856246  0.83288536  0.91963386     0.82700
C2508       C  0.88378703  0.92879118  0.84980118     0.82300
O2509       O  0.84118470  0.90592586  0.93464958    -0.78800
C2510       C  0.76942593  0.88444270  0.83131986     0.83200
O2511       O  0.89850390  0.86025115  0.92198664    -0.78900
C2512       C  0.86472632  0.81582335  0.80525000     0.83300
C2513       C  0.79536317  0.78983589  0.90151266     0.83600
O2514       O  0.82324217  0.78713706  0.89275855    -0.81300
C2515       C  0.68676679  0.57625493  0.68582520     0.79900
N2516       N  0.71382531  0.57743043  0.67036929    -0.78400
C2517       C  0.74089813  0.57661038  0.68582874     0.82300
N2518       N  0.74087614  0.57520941  0.71706430    -0.78400
C2519       C  0.71383269  0.57362820  0.73276660     0.82400
N2520       N  0.68680430  0.57487080  0.71704503    -0.80100
O2521       O  0.79267107  0.66974177  0.62665697    -0.78800
C2522       C  0.76915561  0.58415169  0.66927571     0.82200
O2523       O  0.88504568  0.63705298  0.68180306    -0.79900
O2524       O  0.85461388  0.53775309  0.64249019    -0.81400
O2525       O  0.82172475  0.59403959  0.55281990    -0.81200
O2526       O  0.81134295  0.66670354  0.57898475    -0.79800
Zn2527     Zn  0.81277584  0.63618483  0.65127287     1.55700
O2528       O  0.81231375  0.55234097  0.58133175    -0.81200
Cd2529     Cd  0.83818235  0.62720894  0.58249112     1.59700
Cd2530     Cd  0.88142321  0.61051047  0.64210011     1.59600
O2531       O  0.88245675  0.63703072  0.56736619    -0.81200
O2532       O  0.83832663  0.61053534  0.62556120    -1.91700
Cd2533     Cd  0.82165811  0.56748219  0.62566977     1.59900
O2534       O  0.91099086  0.62733968  0.60898160    -0.81200
O2535       O  0.78193442  0.56407018  0.65216888    -0.79800
C2536       C  0.86499498  0.65412284  0.69468587     0.82700
C2537       C  0.79448627  0.67964395  0.59917402     0.82300
O2538       O  0.77925321  0.61154173  0.67140998    -0.78800
C2539       C  0.81372938  0.56592073  0.55539122     0.83200
O2540       O  0.83755655  0.65621231  0.68471839    -0.78900
C2541       C  0.90840472  0.63561913  0.58094038     0.83300
C2542       C  0.88276790  0.54024930  0.65039381     0.83600
O2543       O  0.89647428  0.56613779  0.65154030    -0.81300
C2544       C  0.68710940  0.89306029  0.68616793     0.79900
N2545       N  0.68684602  0.89520799  0.71742664    -0.78400
C2546       C  0.71382121  0.89640409  0.73340854     0.82300
N2547       N  0.74100848  0.89468721  0.71790023    -0.78400
C2548       C  0.74128717  0.89314701  0.68668030     0.82400
N2549       N  0.71438594  0.89192736  0.67109432    -0.80100
C2550       C  0.77781054  0.76200114  0.59136678     0.79900
N2551       N  0.74656421  0.76194544  0.59021992    -0.78400
C2552       C  0.73086551  0.73488951  0.58900524     0.82300
N2553       N  0.74662433  0.70786994  0.59045600    -0.78400
C2554       C  0.77786630  0.70786718  0.59163800     0.82400
N2555       N  0.79329436  0.73495324  0.59238499    -0.80100
O2556       O  0.83668419  0.81268510  0.68404305    -0.78800
C2557       C  0.76954852  0.88565490  0.67012394     0.82200
O2558       O  0.81198784  0.80269455  0.57904115    -0.79900
O2559       O  0.81142406  0.91693770  0.58126152    -0.81400
O2560       O  0.89629401  0.90316203  0.65207398    -0.81200
O2561       O  0.88416379  0.83198754  0.68187937    -0.79800
Zn2562     Zn  0.81230524  0.83351218  0.65098051     1.55700
O2563       O  0.85475862  0.93169339  0.64200832    -0.81200
Cd2564     Cd  0.88119769  0.85882053  0.64237561     1.59700
Cd2565     Cd  0.83838768  0.84250211  0.58247759     1.59600
O2566       O  0.91128704  0.84201611  0.60971329    -0.81200
O2567       O  0.83819082  0.85908175  0.62552354    -1.91700
Cd2568     Cd  0.82149532  0.90208810  0.62564693     1.59900
O2569       O  0.88295444  0.83313446  0.56778469    -0.81200
O2570       O  0.78228418  0.90573127  0.65295717    -0.79800
C2571       C  0.79435068  0.79024510  0.59887841     0.82700
C2572       C  0.86399246  0.81471708  0.69430869     0.81500
O2573       O  0.77933781  0.85814836  0.67183313    -0.78800
C2574       C  0.88276208  0.92912322  0.65039949     0.83200
O2575       O  0.79176438  0.80055583  0.62613189    -0.78900
C2576       C  0.90883973  0.83415397  0.58155885     0.83300
C2577       C  0.81281261  0.90336496  0.55529479     0.83600
O2578       O  0.82129936  0.87538807  0.55269104    -0.81300
O2579       O  0.53058667  0.86216317  0.57748138    -0.78800
C2580       C  0.54414951  0.92917933  0.65012514     0.82200
O2581       O  0.63599224  0.88703385  0.56807700    -0.79900
O2582       O  0.63274588  0.88796684  0.68218621    -0.81400
O2583       O  0.56254436  0.80250744  0.66847277    -0.81200
O2584       O  0.53212856  0.81501369  0.59762942    -0.79800
Zn2585     Zn  0.56376985  0.88643149  0.59824180     1.55700
O2586       O  0.57239342  0.84407220  0.69700266    -0.81200
Cd2587     Cd  0.57194732  0.81774388  0.62406860     1.59700
Cd2588     Cd  0.63211113  0.86053348  0.60784033     1.59600
O2589       O  0.60452602  0.78774221  0.60689930    -0.81200
O2590       O  0.58895655  0.86066764  0.62419401    -1.91700
Cd2591     Cd  0.58850696  0.87736038  0.66720766     1.59900
O2592       O  0.64666537  0.81594239  0.59845633    -0.81200
O2593       O  0.56083144  0.91628451  0.67050075    -0.79800
C2594       C  0.61614102  0.90448581  0.55538332     0.82700
C2595       C  0.51992194  0.83505550  0.58004504     0.82300
O2596       O  0.54296986  0.91956354  0.62253826    -0.78800
C2597       C  0.56417170  0.81601564  0.69444886     0.83200
O2598       O  0.58876706  0.90682283  0.56539239    -0.78900
C2599       C  0.63274251  0.79012618  0.59919651     0.83300
C2600       C  0.65881324  0.88645334  0.66881369     0.83600
O2601       O  0.66162303  0.87764441  0.64095621    -0.81300
O2602       O  0.63546122  0.66907925  0.62748187    -0.78800
C2603       C  0.56259815  0.65425503  0.69470823     0.82200
O2604       O  0.64587484  0.56380409  0.65195314    -0.79900
O2605       O  0.53136833  0.56590020  0.65211549    -0.81400
O2606       O  0.54544775  0.63717558  0.56764895    -0.81200
O2607       O  0.61673891  0.66652013  0.57979678    -0.79800
Zn2608     Zn  0.61489800  0.63574198  0.65176368     1.55700
O2609       O  0.51675451  0.62696661  0.60902164    -0.81200
Cd2610     Cd  0.58966058  0.62717542  0.58290174     1.59700
Cd2611     Cd  0.60594595  0.56722676  0.62578963     1.59600
O2612       O  0.60607666  0.59415724  0.55305168    -0.81200
O2613       O  0.58934560  0.61029320  0.62586731    -1.91700
Cd2614     Cd  0.54625211  0.61031742  0.64232439     1.59900
O2615       O  0.61507128  0.55223189  0.58135734    -0.81200
O2616       O  0.54253137  0.63722913  0.68177542    -0.79800
C2617       C  0.65847424  0.58373352  0.66937125     0.82700
C2618       C  0.63371658  0.67916212  0.60008597     0.82300
O2619       O  0.59012766  0.65607883  0.68496843    -0.78800
C2620       C  0.51943616  0.63550600  0.58106415     0.83200
O2621       O  0.64816368  0.61098982  0.67193269    -0.78900
C2622       C  0.61384734  0.56596891  0.55548413     0.83300
C2623       C  0.54505688  0.53998217  0.65104122     0.83600
O2624       O  0.57314382  0.53744031  0.64292975    -0.81300
loop_ 
_geom_bond_atom_site_label_1 
_geom_bond_atom_site_label_2 
_geom_bond_distance 
_geom_bond_site_symmetry_2 
_ccdc_geom_bond_type 
C1            N6   1.359       .  A
C1          N330   1.355       .  A
C1          C298   1.460       .  S
N2            C3   1.355       .  A
N2          C329   1.355       .  A
C3            N4   1.359       .  A
C3          C171   1.460       .  S
N4          C333   1.361       .  A
C5            N6   1.361   1_556  A
C5          N332   1.361       .  A
C5          C703   1.475       .  S
C7            N8   1.360       .  A
C7           N12   1.353   1_554  A
C7          C243   1.468       .  S
N8            C9   1.363       .  A
C9          N338   1.364   1_554  A
C9         C1023   1.476   1_545  S
N10          C11   1.360       .  A
N10         C337   1.364       .  A
C11         N340   1.353       .  A
C11         C146   1.469       .  S
N12         C339   1.353       .  A
C13          N18   1.360       .  A
C13         N670   1.353   1_545  A
C13         C246   1.469       .  S
N14          C15   1.353       .  A
N14         C669   1.353       .  A
C15          N16   1.360       .  A
C15         C278   1.469       .  S
N16          C17   1.364       .  A
C17         N674   1.363       .  A
C17          C57   1.477       .  S
N18         C673   1.363   1_545  A
C19          N20   1.362   1_455  A
C19         N680   1.356   1_545  A
C19         C111   1.470       .  S
N20        C1989   1.362   1_545  A
C21        N1988   1.362       .  A
C21        N1334   1.362       .  A
C21          C51   1.476       .  S
N22          C23   1.358   1_655  A
N22        C1333   1.362       .  A
C23          N24   1.352       .  A
C23         C156   1.460       .  S
N24         C675   1.356       .  A
C25          N26   1.361       .  A
C25          N30   1.356       .  A
C25         C280   1.470       .  S
N26          C27   1.362       .  A
C27          N28   1.361       .  A
C27         C391   1.474   1_554  S
N28          C29   1.357       .  A
C29          N30   1.353       .  A
C29        C1611   1.459       .  S
C31          N32   1.361       .  A
C31          N36   1.353       .  A
C31         C144   1.470       .  S
N32          C33   1.365       .  A
C33          N34   1.364       .  A
C33         C397   1.479       .  S
N34          C35   1.361       .  A
C35          N36   1.353       .  A
C35        C1421   1.470       .  S
C37          N38   1.362       .  A
C37         N370   1.355   1_554  A
C37         C281   1.471       .  S
N38         C367   1.363       .  A
C39          N40   1.362       .  A
C39         N366   1.363       .  A
C39         C993   1.476       .  S
N40          C41   1.358       .  A
C41          N42   1.352       .  A
C41         C197   1.459       .  S
N42         C365   1.355       .  A
C43          N48   1.360       .  A
C43         N372   1.353       .  A
C43         C112   1.468       .  S
N44          C45   1.353   1_556  A
N44         C371   1.353       .  A
C45          N46   1.360       .  A
C45         C326   1.469       .  S
N46          C47   1.363   1_554  A
C47         N376   1.363       .  A
C47         C661   1.475   1_545  S
N48         C375   1.363       .  A
C49          N50   1.362       .  A
C49         N710   1.356   1_545  A
C49         C147   1.470       .  S
N50         C707   1.363   1_545  A
C51          N52   1.361       .  A
C51         N706   1.363       .  A
N52          C53   1.357       .  A
C53          N54   1.353       .  A
C53         C212   1.459       .  S
N54         C705   1.356       .  A
C55          N56   1.361   1_455  A
C55         N716   1.355   1_545  A
C55         C327   1.470       .  S
N56        C2025   1.363   1_545  A
C57        N2024   1.363       .  A
C57        N1370   1.362       .  A
N58          C59   1.358   1_655  A
N58        C1369   1.362       .  A
C59          N60   1.352       .  A
C59         C284   1.459       .  S
N60         C711   1.355       .  A
C61          N62   1.359       .  A
C61          N66   1.355       .  A
C61         C211   1.459       .  S
N62          C63   1.360       .  A
C63          N64   1.360       .  A
C63         C355   1.474       .  S
N64          C65   1.358       .  A
C65          N66   1.355       .  A
C65        C1482   1.460       .  S
C67          N68   1.361       .  A
C67          N72   1.353       .  A
C67         C245   1.469       .  S
N68          C69   1.364       .  A
C69          N70   1.364       .  A
C69         C361   1.479   1_554  S
N70          C71   1.361       .  A
C71          N72   1.353       .  A
C71        C1636   1.470       .  S
C73          N74   1.356       .  A
C73          N78   1.362       .  A
C73         C175   1.470       .  S
N74          C75   1.352       .  A
C75          N76   1.358       .  A
C75          C92   1.460       .  S
N76          C77   1.362       .  A
C77          N78   1.363       .  A
C77         C182   1.476       .  S
C79          N80   1.356       .  A
C79          N84   1.361       .  A
C79         C303   1.470       .  S
N80          C81   1.353       .  A
C81          N82   1.358       .  A
C81         C322   1.458       .  S
N82          C83   1.361       .  A
C83          N84   1.362       .  A
C83         C256   1.474       .  S
C85          N86   1.359       .  A
C85          N90   1.355       .  A
C85         C307   1.460       .  S
N86          C87   1.361       .  A
C87          N88   1.362       .  A
C87         C151   1.476       .  S
N88          C89   1.359       .  A
C89          N90   1.355       .  A
C89         C107   1.461       .  S
O91         C107   1.272       .  A
O91         Zn97   2.008       .  S
C92         O108   1.272       .  A
C92         O105   1.274       .  A
O93         C106   1.274       .  A
O93        Cd100   2.081       .  S
O94         C112   1.275       .  A
O94        Cd103   2.060       .  S
O95         C109   1.276       .  A
O95         Cd99   2.064       .  S
O96         C107   1.274       .  A
O96         Cd99   2.082       .  S
Zn97        O108   2.010       .  S
Zn97        O110   2.007       .  S
Zn97        O102   1.931       .  S
O98         C109   1.274       .  A
O98        Cd103   2.079       .  S
Cd99        O101   2.079       .  S
Cd99        O102   2.005       .  S
Cd100       O104   2.064       .  S
Cd100       O113   2.078       .  S
Cd100       O102   2.007       .  S
O101        C111   1.275       .  A
O102       Cd103   2.007       .  S
Cd103       O105   2.079       .  S
O104        C111   1.275       .  A
C106        C120   1.460       .  S
C106        O110   1.272       .  A
C109       C1347   1.470   1_455  S
C112        O113   1.274       .  A
C114        N115   1.359       .  A
C114        N119   1.355       .  A
C114        C127   1.459       .  S
N115        C116   1.361       .  A
C116        N117   1.361       .  A
C116        C192   1.475       .  S
N117        C118   1.359       .  A
C118        N119   1.355       .  A
C118        C240   1.461       .  S
C120        N121   1.359       .  A
C120        N125   1.355       .  A
N121        C122   1.361       .  A
C122        N123   1.360       .  A
C122        C223   1.474       .  S
N123        C124   1.359       .  A
C124        N125   1.355       .  A
C124        C141   1.459       .  S
O126        C142   1.272       .  A
O126       Zn132   2.007       .  S
C127        O143   1.272       .  A
C127        O140   1.274       .  A
O128        C141   1.274       .  A
O128       Cd135   2.080       .  S
O129        C147   1.275       .  A
O129       Cd138   2.079       .  S
O130        C144   1.274       .  A
O130       Cd134   2.080       .  S
O131        C142   1.274       .  A
O131       Cd134   2.080       .  S
Zn132       O143   2.006       .  S
Zn132       O145   2.007       .  S
Zn132       O137   1.931       .  S
O133        C144   1.276       .  A
O133       Cd138   2.065       .  S
Cd134       O136   2.061       .  S
Cd134       O137   2.006       .  S
Cd135       O139   2.079       .  S
Cd135       O148   2.065       .  S
Cd135       O137   2.007       .  S
O136        C146   1.275       .  A
O137       Cd138   2.004       .  S
Cd138       O140   2.080       .  S
O139        C146   1.274       .  A
C141        O145   1.272       .  A
C142        C180   1.460       .  S
C147        O148   1.275       .  A
C149        N150   1.360       .  A
C149        N154   1.354       .  A
C149        C176   1.469       .  S
N150        C151   1.363       .  A
C151        N152   1.364       .  A
N152        C153   1.361       .  A
C153        N154   1.353       .  A
C153        C301   1.470       .  S
O155        C171   1.272       .  A
O155       Zn161   2.011       .  S
C156        O172   1.272       .  A
C156        O169   1.274       .  A
O157        C170   1.274       .  A
O157       Cd164   2.080       .  S
O158        C176   1.275       .  A
O158       Cd167   2.061       .  S
O159        C173   1.276       .  A
O159       Cd163   2.064       .  S
O160        C171   1.274       .  A
O160       Cd163   2.079       .  S
Zn161       O172   2.009       .  S
Zn161       O174   2.007       .  S
Zn161       O166   1.931       .  S
O162        C173   1.274       .  A
O162       Cd167   2.079       .  S
Cd163       O165   2.079       .  S
Cd163       O166   2.006       .  S
Cd164       O168   2.065       .  S
Cd164       O177   2.080       .  S
Cd164       O166   2.007       .  S
O165        C175   1.274       .  A
O166       Cd167   2.007       .  S
Cd167       O169   2.080       .  S
O168        C175   1.275       .  A
C170       C1377   1.460   1_455  S
C170        O174   1.272       .  A
C173        C184   1.470       .  S
C176        O177   1.275       .  A
C178        N179   1.356       .  A
C178        N183   1.362       .  A
C178        C217   1.470       .  S
N179        C180   1.352       .  A
C180        N181   1.357       .  A
N181        C182   1.362       .  A
C182        N183   1.363       .  A
C184        N185   1.361       .  A
C184        N189   1.353       .  A
N185        C186   1.364       .  A
C186        N187   1.364       .  A
C186        C250   1.478       .  S
N187        C188   1.360       .  A
C188        N189   1.353       .  A
C188        C214   1.470       .  S
C190        N191   1.361       .  A
C190        N195   1.356       .  A
C190        C216   1.470       .  S
N191        C192   1.363       .  A
C192        N193   1.361       .  A
N193        C194   1.358       .  A
C194        N195   1.353       .  A
C194        C276   1.458       .  S
O196        C212   1.271       .  A
O196       Zn202   2.004       .  S
C197        O213   1.271       .  A
C197        O210   1.274       .  A
O198        C211   1.274       .  A
O198       Cd205   2.081       .  S
O199        C217   1.275       .  A
O199       Cd208   2.079       .  S
O200        C214   1.275       .  A
O200       Cd204   2.080       .  S
O201        C212   1.274       .  A
O201       Cd204   2.080       .  S
Zn202       O213   2.003       .  S
Zn202       O215   2.003       .  S
Zn202       O207   1.930       .  S
O203        C214   1.275       .  A
O203       Cd208   2.063       .  S
Cd204       O206   2.065       .  S
Cd204       O207   2.007       .  S
Cd205       O209   2.079       .  S
Cd205       O218   2.065       .  S
Cd205       O207   2.005       .  S
O206        C216   1.275       .  A
O207       Cd208   2.006       .  S
Cd208       O210   2.080       .  S
O209        C216   1.275       .  A
C211        O215   1.271       .  A
C217        O218   1.276       .  A
C219        N220   1.355       .  A
C219        N224   1.358       .  A
C219        C321   1.459       .  S
N220        C221   1.355       .  A
C221        N222   1.359       .  A
C221        C226   1.461       .  S
N222        C223   1.361       .  A
C223        N224   1.360       .  A
O225        C241   1.272       .  A
O225       Zn231   2.009       .  S
C226        O242   1.272       .  A
C226        O239   1.274       .  A
O227        C240   1.274       .  A
O227       Cd234   2.082       .  S
O228        C246   1.275       .  A
O228       Cd237   2.063       .  S
O229        C243   1.275       .  A
O229       Cd233   2.062       .  S
O230        C241   1.274       .  A
O230       Cd233   2.081       .  S
Zn231       O242   2.009       .  S
Zn231       O244   2.007       .  S
Zn231       O236   1.930       .  S
O232        C243   1.274       .  A
O232       Cd237   2.076       .  S
Cd233       O235   2.078       .  S
Cd233       O236   2.007       .  S
Cd234       O238   2.064       .  S
Cd234       O247   2.077       .  S
Cd234       O236   2.006       .  S
O235        C245   1.274       .  A
O236       Cd237   2.006       .  S
Cd237       O239   2.081       .  S
O238        C245   1.276       .  A
C240        O244   1.272       .  A
C241        C258   1.461       .  S
C246        O247   1.274       .  A
C248        N249   1.362       .  A
C248        N253   1.355       .  A
C248        C304   1.471       .  S
N249        C250   1.363       .  A
C250        N251   1.363       .  A
N251        C252   1.359       .  A
C252        N253   1.352       .  A
C252        C261   1.460       .  S
C254        N255   1.359       .  A
C254        N259   1.355       .  A
C254        C275   1.459       .  S
N255        C256   1.360       .  A
C256        N257   1.361       .  A
N257        C258   1.359       .  A
C258        N259   1.355       .  A
O260        C276   1.271       .  A
O260       Zn266   2.002       .  S
C261        O277   1.271       .  A
C261        O274   1.274       .  A
O262        C275   1.274       .  A
O262       Cd269   2.081       .  S
O263        C281   1.275       .  A
O263       Cd272   2.081       .  S
O264        C278   1.275       .  A
O264       Cd268   2.079       .  S
O265        C276   1.274       .  A
O265       Cd268   2.079       .  S
Zn266       O277   2.005       .  S
Zn266       O279   2.004       .  S
Zn266       O271   1.930       .  S
O267        C278   1.275       .  A
O267       Cd272   2.062       .  S
Cd268       O270   2.064       .  S
Cd268       O271   2.007       .  S
Cd269       O273   2.080       .  S
Cd269       O282   2.066       .  S
Cd269       O271   2.005       .  S
O270        C280   1.275       .  A
O271       Cd272   2.005       .  S
Cd272       O274   2.083       .  S
O273        C280   1.275       .  A
C275        O279   1.271       .  A
C281        O282   1.276       .  A
O283        C299   1.271       .  A
O283       Zn289   2.001       .  S
C284        O300   1.271       .  A
C284        O297   1.274       .  A
O285        C298   1.274       .  A
O285       Cd292   2.084       .  S
O286        C304   1.275       .  A
O286       Cd295   2.081       .  S
O287        C301   1.275       .  A
O287       Cd291   2.081       .  S
O288        C299   1.274       .  A
O288       Cd291   2.080       .  S
Zn289       O300   2.002       .  S
Zn289       O302   2.001       .  S
Zn289       O294   1.930       .  S
O290        C301   1.275       .  A
O290       Cd295   2.064       .  S
Cd291       O293   2.065       .  S
Cd291       O294   2.007       .  S
Cd292       O296   2.079       .  S
Cd292       O305   2.066       .  S
Cd292       O294   2.006       .  S
O293        C303   1.275       .  A
O294       Cd295   2.006       .  S
Cd295       O297   2.081       .  S
O296        C303   1.275       .  A
C298        O302   1.271       .  A
C299       C1341   1.459   1_455  S
C304        O305   1.276       .  A
O306        C322   1.271       .  A
O306       Zn312   2.003       .  S
C307        O323   1.272       .  A
C307        O320   1.274       .  A
O308        C321   1.274       .  A
O308       Cd315   2.080       .  S
O309        C327   1.275       .  A
O309       Cd318   2.080       .  S
O310        C324   1.274       .  A
O310       Cd314   2.078       .  S
O311        C322   1.274       .  A
O311       Cd314   2.080       .  S
Zn312       O323   2.006       .  S
Zn312       O325   2.004       .  S
Zn312       O317   1.929       .  S
O313        C324   1.276       .  A
O313       Cd318   2.064       .  S
Cd314       O316   2.062       .  S
Cd314       O317   2.006       .  S
Cd315       O319   2.077       .  S
Cd315       O328   2.065       .  S
Cd315       O317   2.006       .  S
O316        C326   1.275       .  A
O317       Cd318   2.005       .  S
Cd318       O320   2.082       .  S
O319        C326   1.274       .  A
C321        O325   1.271       .  A
C324       C1383   1.470   1_455  S
C327        O328   1.275       .  A
C329        N334   1.359       .  A
C329        C626   1.460       .  S
N330        C331   1.355   1_554  A
C331        N332   1.359       .  A
C331        C499   1.460       .  S
C333        N334   1.361       .  A
C333       C1031   1.475       .  S
C335        N336   1.360       .  A
C335        N340   1.353       .  A
C335        C571   1.468       .  S
N336        C337   1.363       .  A
C337        C695   1.476   1_545  S
N338        C339   1.360       .  A
C339        C474   1.469       .  S
C341        N998   1.353   1_545  A
C341        N346   1.360       .  A
C341        C574   1.469       .  S
N342        C997   1.353       .  A
N342        C343   1.353       .  A
C343        N344   1.360       .  A
C343        C606   1.469       .  S
N344        C345   1.364       .  A
C345       N1002   1.363       .  A
C345        C385   1.476       .  S
N346       C1001   1.363   1_545  A
C347        N348   1.362   1_455  A
C347       N1008   1.356   1_545  A
C347        C439   1.470       .  S
N348       C2317   1.362   1_545  A
C349       N2316   1.362       .  A
C349       N1662   1.362       .  A
C349        C379   1.476       .  S
N350       C1661   1.362       .  A
N350        C351   1.358   1_655  A
C351        N352   1.352       .  A
C351        C484   1.460       .  S
N352       C1003   1.356       .  A
C353        N354   1.361       .  A
C353        N358   1.356       .  A
C353        C608   1.470       .  S
N354        C355   1.362       .  A
C355        N356   1.361       .  A
N356        C357   1.357       .  A
C357        N358   1.353       .  A
C357       C1939   1.459       .  S
C359        N360   1.361       .  A
C359        N364   1.353       .  A
C359        C472   1.470       .  S
N360        C361   1.365       .  A
C361        N362   1.364       .  A
N362        C363   1.361       .  A
C363        N364   1.353       .  A
C363       C1749   1.470       .  S
C365        N366   1.362       .  A
C365        C609   1.471       .  S
C367        N368   1.362   1_554  A
C367        C665   1.476       .  S
N368        C369   1.358       .  A
C369        N370   1.352       .  A
C369        C525   1.459       .  S
C371        N376   1.360       .  A
C371        C440   1.468       .  S
N372        C373   1.353       .  A
C373        N374   1.360       .  A
C373        C654   1.469       .  S
N374        C375   1.363       .  A
C375        C989   1.475   1_545  S
C377        N378   1.362       .  A
C377       N1038   1.356   1_545  A
C377        C475   1.470       .  S
N378       C1035   1.363   1_545  A
C379       N1034   1.363       .  A
C379        N380   1.361       .  A
N380        C381   1.357       .  A
C381        N382   1.353       .  A
C381        C540   1.459       .  S
N382       C1033   1.356       .  A
C383        N384   1.361   1_455  A
C383       N1044   1.355   1_545  A
C383        C655   1.470       .  S
N384       C2353   1.363   1_545  A
C385       N2352   1.363       .  A
C385       N1698   1.362       .  A
N386       C1697   1.362       .  A
N386        C387   1.358   1_655  A
C387        N388   1.352       .  A
C387        C612   1.459       .  S
N388       C1039   1.355       .  A
C389        N390   1.359       .  A
C389        N394   1.355       .  A
C389        C539   1.459       .  S
N390        C391   1.360       .  A
C391        N392   1.360       .  A
N392        C393   1.358       .  A
C393        N394   1.355       .  A
C393       C1810   1.460       .  S
C395        N396   1.361       .  A
C395        N400   1.353       .  A
C395        C573   1.469       .  S
N396        C397   1.364       .  A
C397        N398   1.364       .  A
N398        C399   1.361       .  A
C399        N400   1.353       .  A
C399       C1964   1.470       .  S
C401        N402   1.356       .  A
C401        N406   1.362       .  A
C401        C503   1.470       .  S
N402        C403   1.352       .  A
C403        N404   1.358       .  A
C403        C420   1.460       .  S
N404        C405   1.362       .  A
C405        N406   1.363       .  A
C405        C510   1.476       .  S
C407        N408   1.356       .  A
C407        N412   1.361       .  A
C407        C631   1.470       .  S
N408        C409   1.353       .  A
C409        N410   1.358       .  A
C409        C650   1.458       .  S
N410        C411   1.361       .  A
C411        N412   1.362       .  A
C411        C584   1.474       .  S
C413        N414   1.359       .  A
C413        N418   1.355       .  A
C413        C635   1.460       .  S
N414        C415   1.361       .  A
C415        N416   1.362       .  A
C415        C479   1.476       .  S
N416        C417   1.359       .  A
C417        N418   1.355       .  A
C417        C435   1.461       .  S
O419        C435   1.272       .  A
O419       Zn425   2.008       .  S
C420        O436   1.272       .  A
C420        O433   1.274       .  A
O421        C434   1.274       .  A
O421       Cd428   2.081       .  S
O422        C440   1.275       .  A
O422       Cd431   2.060       .  S
O423        C437   1.276       .  A
O423       Cd427   2.064       .  S
O424        C435   1.274       .  A
O424       Cd427   2.082       .  S
Zn425       O436   2.010       .  S
Zn425       O438   2.007       .  S
Zn425       O430   1.931       .  S
O426        C437   1.274       .  A
O426       Cd431   2.079       .  S
Cd427       O429   2.079       .  S
Cd427       O430   2.005       .  S
Cd428       O432   2.064       .  S
Cd428       O441   2.078       .  S
Cd428       O430   2.007       .  S
O429        C439   1.275       .  A
O430       Cd431   2.007       .  S
Cd431       O433   2.079       .  S
O432        C439   1.275       .  A
C434        C448   1.460       .  S
C434        O438   1.272       .  A
C437       C1675   1.470   1_455  S
C440        O441   1.274       .  A
C442        N443   1.359       .  A
C442        N447   1.355       .  A
C442        C455   1.459       .  S
N443        C444   1.361       .  A
C444        N445   1.361       .  A
C444        C520   1.475       .  S
N445        C446   1.359       .  A
C446        N447   1.355       .  A
C446        C568   1.461       .  S
C448        N449   1.359       .  A
C448        N453   1.355       .  A
N449        C450   1.361       .  A
C450        N451   1.360       .  A
C450        C551   1.474       .  S
N451        C452   1.359       .  A
C452        N453   1.355       .  A
C452        C469   1.459       .  S
O454        C470   1.272       .  A
O454       Zn460   2.007       .  S
C455        O471   1.272       .  A
C455        O468   1.274       .  A
O456        C469   1.274       .  A
O456       Cd463   2.080       .  S
O457        C475   1.275       .  A
O457       Cd466   2.079       .  S
O458        C472   1.274       .  A
O458       Cd462   2.080       .  S
O459        C470   1.274       .  A
O459       Cd462   2.080       .  S
Zn460       O471   2.006       .  S
Zn460       O473   2.007       .  S
Zn460       O465   1.931       .  S
O461        C472   1.276       .  A
O461       Cd466   2.065       .  S
Cd462       O464   2.061       .  S
Cd462       O465   2.006       .  S
Cd463       O467   2.079       .  S
Cd463       O476   2.065       .  S
Cd463       O465   2.007       .  S
O464        C474   1.275       .  A
O465       Cd466   2.004       .  S
Cd466       O468   2.080       .  S
O467        C474   1.274       .  A
C469        O473   1.272       .  A
C470        C508   1.460       .  S
C475        O476   1.275       .  A
C477        N478   1.360       .  A
C477        N482   1.354       .  A
C477        C504   1.469       .  S
N478        C479   1.363       .  A
C479        N480   1.364       .  A
N480        C481   1.361       .  A
C481        N482   1.353       .  A
C481        C629   1.470       .  S
O483        C499   1.272       .  A
O483       Zn489   2.011       .  S
C484        O500   1.272       .  A
C484        O497   1.274       .  A
O485        C498   1.274       .  A
O485       Cd492   2.080       .  S
O486        C504   1.275       .  A
O486       Cd495   2.061       .  S
O487        C501   1.276       .  A
O487       Cd491   2.064       .  S
O488        C499   1.274       .  A
O488       Cd491   2.079       .  S
Zn489       O500   2.009       .  S
Zn489       O502   2.007       .  S
Zn489       O494   1.931       .  S
O490        C501   1.274       .  A
O490       Cd495   2.079       .  S
Cd491       O493   2.079       .  S
Cd491       O494   2.006       .  S
Cd492       O496   2.065       .  S
Cd492       O505   2.080       .  S
Cd492       O494   2.007       .  S
O493        C503   1.275       .  A
O494       Cd495   2.007       .  S
Cd495       O497   2.080       .  S
O496        C503   1.275       .  A
C498       C1705   1.460   1_455  S
C498        O502   1.272       .  A
C501        C512   1.470       .  S
C504        O505   1.275       .  A
C506        N507   1.356       .  A
C506        N511   1.362       .  A
C506        C545   1.470       .  S
N507        C508   1.352       .  A
C508        N509   1.357       .  A
N509        C510   1.362       .  A
C510        N511   1.363       .  A
C512        N513   1.361       .  A
C512        N517   1.353       .  A
N513        C514   1.364       .  A
C514        N515   1.364       .  A
C514        C578   1.478       .  S
N515        C516   1.360       .  A
C516        N517   1.353       .  A
C516        C542   1.470       .  S
C518        N519   1.361       .  A
C518        N523   1.356       .  A
C518        C544   1.470       .  S
N519        C520   1.363       .  A
C520        N521   1.361       .  A
N521        C522   1.358       .  A
C522        N523   1.353       .  A
C522        C604   1.458       .  S
O524        C540   1.271       .  A
O524       Zn530   2.004       .  S
C525        O541   1.271       .  A
C525        O538   1.274       .  A
O526        C539   1.274       .  A
O526       Cd533   2.081       .  S
O527        C545   1.275       .  A
O527       Cd536   2.079       .  S
O528        C542   1.275       .  A
O528       Cd532   2.080       .  S
O529        C540   1.274       .  A
O529       Cd532   2.080       .  S
Zn530       O541   2.003       .  S
Zn530       O543   2.004       .  S
Zn530       O535   1.930       .  S
O531        C542   1.275       .  A
O531       Cd536   2.063       .  S
Cd532       O534   2.065       .  S
Cd532       O535   2.007       .  S
Cd533       O537   2.079       .  S
Cd533       O546   2.065       .  S
Cd533       O535   2.005       .  S
O534        C544   1.275       .  A
O535       Cd536   2.006       .  S
Cd536       O538   2.080       .  S
O537        C544   1.275       .  A
C539        O543   1.271       .  A
C545        O546   1.275       .  A
C547        N548   1.355       .  A
C547        N552   1.358       .  A
C547        C649   1.459       .  S
N548        C549   1.355       .  A
C549        N550   1.359       .  A
C549        C554   1.461       .  S
N550        C551   1.361       .  A
C551        N552   1.360       .  A
O553        C569   1.272       .  A
O553       Zn559   2.009       .  S
C554        O570   1.272       .  A
C554        O567   1.274       .  A
O555        C568   1.274       .  A
O555       Cd562   2.082       .  S
O556        C574   1.275       .  A
O556       Cd565   2.063       .  S
O557        C571   1.275       .  A
O557       Cd561   2.062       .  S
O558        C569   1.274       .  A
O558       Cd561   2.081       .  S
Zn559       O570   2.009       .  S
Zn559       O572   2.007       .  S
Zn559       O564   1.930       .  S
O560        C571   1.274       .  A
O560       Cd565   2.076       .  S
Cd561       O563   2.078       .  S
Cd561       O564   2.007       .  S
Cd562       O566   2.064       .  S
Cd562       O575   2.077       .  S
Cd562       O564   2.006       .  S
O563        C573   1.274       .  A
O564       Cd565   2.006       .  S
Cd565       O567   2.081       .  S
O566        C573   1.276       .  A
C568        O572   1.272       .  A
C569        C586   1.461       .  S
C574        O575   1.274       .  A
C576        N577   1.362       .  A
C576        N581   1.355       .  A
C576        C632   1.471       .  S
N577        C578   1.364       .  A
C578        N579   1.362       .  A
N579        C580   1.359       .  A
C580        N581   1.352       .  A
C580        C589   1.460       .  S
C582        N583   1.359       .  A
C582        N587   1.355       .  A
C582        C603   1.459       .  S
N583        C584   1.360       .  A
C584        N585   1.361       .  A
N585        C586   1.359       .  A
C586        N587   1.355       .  A
O588        C604   1.271       .  A
O588       Zn594   2.002       .  S
C589        O605   1.271       .  A
C589        O602   1.274       .  A
O590        C603   1.274       .  A
O590       Cd597   2.081       .  S
O591        C609   1.275       .  A
O591       Cd600   2.081       .  S
O592        C606   1.275       .  A
O592       Cd596   2.079       .  S
O593        C604   1.274       .  A
O593       Cd596   2.079       .  S
Zn594       O605   2.005       .  S
Zn594       O607   2.004       .  S
Zn594       O599   1.930       .  S
O595        C606   1.275       .  A
O595       Cd600   2.062       .  S
Cd596       O598   2.064       .  S
Cd596       O599   2.007       .  S
Cd597       O601   2.080       .  S
Cd597       O610   2.066       .  S
Cd597       O599   2.005       .  S
O598        C608   1.275       .  A
O599       Cd600   2.005       .  S
Cd600       O602   2.083       .  S
O601        C608   1.275       .  A
C603        O607   1.271       .  A
C609        O610   1.276       .  A
O611        C627   1.271       .  A
O611       Zn617   2.001       .  S
C612        O628   1.271       .  A
C612        O625   1.274       .  A
O613        C626   1.274       .  A
O613       Cd620   2.084       .  S
O614        C632   1.275       .  A
O614       Cd623   2.081       .  S
O615        C629   1.275       .  A
O615       Cd619   2.081       .  S
O616        C627   1.274       .  A
O616       Cd619   2.080       .  S
Zn617       O628   2.002       .  S
Zn617       O630   2.001       .  S
Zn617       O622   1.930       .  S
O618        C629   1.275       .  A
O618       Cd623   2.064       .  S
Cd619       O621   2.065       .  S
Cd619       O622   2.007       .  S
Cd620       O624   2.079       .  S
Cd620       O633   2.066       .  S
Cd620       O622   2.006       .  S
O621        C631   1.275       .  A
O622       Cd623   2.006       .  S
Cd623       O625   2.081       .  S
O624        C631   1.275       .  A
C626        O630   1.271       .  A
C627       C1669   1.459   1_455  S
C632        O633   1.276       .  A
O634        C650   1.271       .  A
O634       Zn640   2.003       .  S
C635        O651   1.272       .  A
C635        O648   1.274       .  A
O636        C649   1.274       .  A
O636       Cd643   2.080       .  S
O637        C655   1.275       .  A
O637       Cd646   2.080       .  S
O638        C652   1.274       .  A
O638       Cd642   2.078       .  S
O639        C650   1.274       .  A
O639       Cd642   2.080       .  S
Zn640       O651   2.006       .  S
Zn640       O653   2.004       .  S
Zn640       O645   1.929       .  S
O641        C652   1.276       .  A
O641       Cd646   2.064       .  S
Cd642       O644   2.062       .  S
Cd642       O645   2.006       .  S
Cd643       O647   2.077       .  S
Cd643       O656   2.065       .  S
Cd643       O645   2.006       .  S
O644        C654   1.275       .  A
O645       Cd646   2.005       .  S
Cd646       O648   2.082       .  S
O647        C654   1.274       .  A
C649        O653   1.271       .  A
C652       C1711   1.470   1_455  S
C655        O656   1.275       .  A
C657        N986   1.355       .  A
C657        N662   1.359       .  A
C657        C954   1.460       .  S
N658        C985   1.355       .  A
N658        C659   1.355       .  A
C659        N660   1.359       .  A
C659        C827   1.460       .  S
N660        C989   1.361       .  A
C661        N988   1.361       .  A
C661        N662   1.361   1_556  A
C663        N664   1.360       .  A
C663        N668   1.353   1_554  A
C663        C899   1.468       .  S
N664        C665   1.363       .  A
C665        N994   1.364   1_554  A
N666        C993   1.364       .  A
N666        C667   1.360       .  A
C667        N996   1.353       .  A
C667        C802   1.469       .  S
N668        C995   1.353       .  A
C669        N674   1.360       .  A
C669        C902   1.469       .  S
N670        C671   1.353       .  A
C671        N672   1.360       .  A
C671        C934   1.469       .  S
N672        C673   1.364       .  A
C673        C713   1.476       .  S
C675        N676   1.362   1_455  A
C675        C767   1.470       .  S
N676       C1333   1.362       .  A
C677       N1332   1.362   1_565  A
C677       N1990   1.362       .  A
C677        C707   1.476       .  S
N678       C1989   1.362       .  A
N678        C679   1.358   1_655  A
C679        N680   1.352       .  A
C679        C812   1.460       .  S
C681        N682   1.361       .  A
C681        N686   1.356       .  A
C681        C936   1.470       .  S
N682        C683   1.362       .  A
C683        N684   1.361       .  A
C683       C1047   1.474   1_554  S
N684        C685   1.357       .  A
C685        N686   1.353       .  A
C685       C2267   1.459       .  S
C687        N688   1.361       .  A
C687        N692   1.353       .  A
C687        C800   1.470       .  S
N688        C689   1.365       .  A
C689        N690   1.364       .  A
C689       C1053   1.479       .  S
N690        C691   1.361       .  A
C691        N692   1.353       .  A
C691       C2077   1.470       .  S
C693        N694   1.362       .  A
C693       N1026   1.355   1_554  A
C693        C937   1.471       .  S
N694       C1023   1.363       .  A
C695       N1022   1.363       .  A
C695        N696   1.362       .  A
N696        C697   1.358       .  A
C697        N698   1.352       .  A
C697        C853   1.459       .  S
N698       C1021   1.355       .  A
C699       N1028   1.353       .  A
C699        N704   1.360       .  A
C699        C768   1.468       .  S
N700       C1027   1.353       .  A
N700        C701   1.353   1_556  A
C701        N702   1.360       .  A
C701        C982   1.469       .  S
N702        C703   1.363   1_554  A
C703       N1032   1.363       .  A
N704       C1031   1.363       .  A
C705        N706   1.362       .  A
C705        C803   1.470       .  S
C707        N708   1.361       .  A
N708        C709   1.357       .  A
C709        N710   1.353       .  A
C709        C868   1.459       .  S
C711        N712   1.361   1_455  A
C711        C983   1.470       .  S
N712       C1369   1.363       .  A
C713       N1368   1.363   1_565  A
C713       N2026   1.362       .  A
N714       C2025   1.362       .  A
N714        C715   1.358   1_655  A
C715        N716   1.352       .  A
C715        C940   1.459       .  S
C717        N718   1.359       .  A
C717        N722   1.355       .  A
C717        C867   1.459       .  S
N718        C719   1.360       .  A
C719        N720   1.360       .  A
C719       C1011   1.474       .  S
N720        C721   1.358       .  A
C721        N722   1.355       .  A
C721       C2138   1.460       .  S
C723        N724   1.361       .  A
C723        N728   1.353       .  A
C723        C901   1.469       .  S
N724        C725   1.364       .  A
C725        N726   1.364       .  A
C725       C1017   1.479   1_554  S
N726        C727   1.361       .  A
C727        N728   1.353       .  A
C727       C2292   1.470       .  S
C729        N730   1.356       .  A
C729        N734   1.362       .  A
C729        C831   1.470       .  S
N730        C731   1.352       .  A
C731        N732   1.358       .  A
C731        C748   1.460       .  S
N732        C733   1.362       .  A
C733        N734   1.363       .  A
C733        C838   1.476       .  S
C735        N736   1.356       .  A
C735        N740   1.361       .  A
C735        C959   1.470       .  S
N736        C737   1.353       .  A
C737        N738   1.358       .  A
C737        C978   1.458       .  S
N738        C739   1.361       .  A
C739        N740   1.362       .  A
C739        C912   1.474       .  S
C741        N742   1.359       .  A
C741        N746   1.355       .  A
C741        C963   1.460       .  S
N742        C743   1.361       .  A
C743        N744   1.362       .  A
C743        C807   1.476       .  S
N744        C745   1.359       .  A
C745        N746   1.355       .  A
C745        C763   1.461       .  S
O747        C763   1.272       .  A
O747       Zn753   2.008       .  S
C748        O764   1.272       .  A
C748        O761   1.274       .  A
O749        C762   1.274       .  A
O749       Cd756   2.081       .  S
O750        C768   1.275       .  A
O750       Cd759   2.060       .  S
O751        C765   1.276       .  A
O751       Cd755   2.064       .  S
O752        C763   1.274       .  A
O752       Cd755   2.082       .  S
Zn753       O764   2.010       .  S
Zn753       O766   2.007       .  S
Zn753       O758   1.931       .  S
O754        C765   1.274       .  A
O754       Cd759   2.079       .  S
Cd755       O757   2.079       .  S
Cd755       O758   2.005       .  S
Cd756       O760   2.064       .  S
Cd756       O769   2.078       .  S
Cd756       O758   2.007       .  S
O757        C767   1.275       .  A
O758       Cd759   2.007       .  S
Cd759       O761   2.079       .  S
O760        C767   1.275       .  A
C762        C776   1.460       .  S
C762        O766   1.272       .  A
C765       C2003   1.470   1_455  S
C768        O769   1.274       .  A
C770        N771   1.359       .  A
C770        N775   1.355       .  A
C770        C783   1.459       .  S
N771        C772   1.361       .  A
C772        N773   1.361       .  A
C772        C848   1.475       .  S
N773        C774   1.359       .  A
C774        N775   1.355       .  A
C774        C896   1.461       .  S
C776        N777   1.359       .  A
C776        N781   1.355       .  A
N777        C778   1.361       .  A
C778        N779   1.360       .  A
C778        C879   1.474       .  S
N779        C780   1.359       .  A
C780        N781   1.355       .  A
C780        C797   1.459       .  S
O782        C798   1.272       .  A
O782       Zn788   2.007       .  S
C783        O799   1.272       .  A
C783        O796   1.274       .  A
O784        C797   1.274       .  A
O784       Cd791   2.080       .  S
O785        C803   1.275       .  A
O785       Cd794   2.079       .  S
O786        C800   1.274       .  A
O786       Cd790   2.080       .  S
O787        C798   1.274       .  A
O787       Cd790   2.080       .  S
Zn788       O799   2.006       .  S
Zn788       O801   2.007       .  S
Zn788       O793   1.931       .  S
O789        C800   1.276       .  A
O789       Cd794   2.065       .  S
Cd790       O792   2.061       .  S
Cd790       O793   2.006       .  S
Cd791       O795   2.079       .  S
Cd791       O804   2.065       .  S
Cd791       O793   2.007       .  S
O792        C802   1.275       .  A
O793       Cd794   2.004       .  S
Cd794       O796   2.080       .  S
O795        C802   1.274       .  A
C797        O801   1.272       .  A
C798        C836   1.460       .  S
C803        O804   1.275       .  A
C805        N806   1.360       .  A
C805        N810   1.354       .  A
C805        C832   1.469       .  S
N806        C807   1.363       .  A
C807        N808   1.364       .  A
N808        C809   1.361       .  A
C809        N810   1.353       .  A
C809        C957   1.470       .  S
O811        C827   1.272       .  A
O811       Zn817   2.011       .  S
C812        O828   1.272       .  A
C812        O825   1.274       .  A
O813        C826   1.274       .  A
O813       Cd820   2.080       .  S
O814        C832   1.275       .  A
O814       Cd823   2.061       .  S
O815        C829   1.276       .  A
O815       Cd819   2.064       .  S
O816        C827   1.274       .  A
O816       Cd819   2.079       .  S
Zn817       O828   2.009       .  S
Zn817       O830   2.007       .  S
Zn817       O822   1.931       .  S
O818        C829   1.274       .  A
O818       Cd823   2.079       .  S
Cd819       O821   2.079       .  S
Cd819       O822   2.006       .  S
Cd820       O824   2.065       .  S
Cd820       O833   2.080       .  S
Cd820       O822   2.007       .  S
O821        C831   1.275       .  A
O822       Cd823   2.007       .  S
Cd823       O825   2.080       .  S
O824        C831   1.275       .  A
C826       C2033   1.460   1_455  S
C826        O830   1.272       .  A
C829        C840   1.470       .  S
C832        O833   1.275       .  A
C834        N835   1.356       .  A
C834        N839   1.362       .  A
C834        C873   1.470       .  S
N835        C836   1.352       .  A
C836        N837   1.357       .  A
N837        C838   1.362       .  A
C838        N839   1.363       .  A
C840        N841   1.361       .  A
C840        N845   1.353       .  A
N841        C842   1.364       .  A
C842        N843   1.364       .  A
C842        C906   1.478       .  S
N843        C844   1.360       .  A
C844        N845   1.353       .  A
C844        C870   1.470       .  S
C846        N847   1.361       .  A
C846        N851   1.356       .  A
C846        C872   1.470       .  S
N847        C848   1.363       .  A
C848        N849   1.361       .  A
N849        C850   1.358       .  A
C850        N851   1.353       .  A
C850        C932   1.458       .  S
O852        C868   1.271       .  A
O852       Zn858   2.004       .  S
C853        O869   1.271       .  A
C853        O866   1.274       .  A
O854        C867   1.274       .  A
O854       Cd861   2.081       .  S
O855        C873   1.275       .  A
O855       Cd864   2.079       .  S
O856        C870   1.275       .  A
O856       Cd860   2.080       .  S
O857        C868   1.274       .  A
O857       Cd860   2.080       .  S
Zn858       O869   2.003       .  S
Zn858       O871   2.004       .  S
Zn858       O863   1.930       .  S
O859        C870   1.275       .  A
O859       Cd864   2.063       .  S
Cd860       O862   2.065       .  S
Cd860       O863   2.007       .  S
Cd861       O865   2.079       .  S
Cd861       O874   2.065       .  S
Cd861       O863   2.005       .  S
O862        C872   1.275       .  A
O863       Cd864   2.006       .  S
Cd864       O866   2.080       .  S
O865        C872   1.275       .  A
C867        O871   1.271       .  A
C873        O874   1.275       .  A
C875        N876   1.355       .  A
C875        N880   1.358       .  A
C875        C977   1.459       .  S
N876        C877   1.355       .  A
C877        N878   1.359       .  A
C877        C882   1.461       .  S
N878        C879   1.361       .  A
C879        N880   1.360       .  A
O881        C897   1.272       .  A
O881       Zn887   2.009       .  S
C882        O898   1.272       .  A
C882        O895   1.274       .  A
O883        C896   1.274       .  A
O883       Cd890   2.082       .  S
O884        C902   1.275       .  A
O884       Cd893   2.063       .  S
O885        C899   1.275       .  A
O885       Cd889   2.062       .  S
O886        C897   1.274       .  A
O886       Cd889   2.081       .  S
Zn887       O898   2.009       .  S
Zn887       O900   2.007       .  S
Zn887       O892   1.930       .  S
O888        C899   1.274       .  A
O888       Cd893   2.076       .  S
Cd889       O891   2.078       .  S
Cd889       O892   2.007       .  S
Cd890       O894   2.064       .  S
Cd890       O903   2.077       .  S
Cd890       O892   2.006       .  S
O891        C901   1.274       .  A
O892       Cd893   2.006       .  S
Cd893       O895   2.081       .  S
O894        C901   1.276       .  A
C896        O900   1.272       .  A
C897        C914   1.461       .  S
C902        O903   1.274       .  A
C904        N905   1.362       .  A
C904        N909   1.355       .  A
C904        C960   1.471       .  S
N905        C906   1.364       .  A
C906        N907   1.362       .  A
N907        C908   1.359       .  A
C908        N909   1.352       .  A
C908        C917   1.460       .  S
C910        N911   1.359       .  A
C910        N915   1.355       .  A
C910        C931   1.459       .  S
N911        C912   1.360       .  A
C912        N913   1.361       .  A
N913        C914   1.359       .  A
C914        N915   1.355       .  A
O916        C932   1.271       .  A
O916       Zn922   2.002       .  S
C917        O933   1.271       .  A
C917        O930   1.274       .  A
O918        C931   1.274       .  A
O918       Cd925   2.081       .  S
O919        C937   1.275       .  A
O919       Cd928   2.081       .  S
O920        C934   1.275       .  A
O920       Cd924   2.079       .  S
O921        C932   1.274       .  A
O921       Cd924   2.079       .  S
Zn922       O933   2.005       .  S
Zn922       O935   2.004       .  S
Zn922       O927   1.930       .  S
O923        C934   1.275       .  A
O923       Cd928   2.062       .  S
Cd924       O926   2.064       .  S
Cd924       O927   2.007       .  S
Cd925       O929   2.080       .  S
Cd925       O938   2.066       .  S
Cd925       O927   2.005       .  S
O926        C936   1.275       .  A
O927       Cd928   2.005       .  S
Cd928       O930   2.083       .  S
O929        C936   1.275       .  A
C931        O935   1.271       .  A
C937        O938   1.276       .  A
O939        C955   1.271       .  A
O939       Zn945   2.001       .  S
C940        O956   1.271       .  A
C940        O953   1.274       .  A
O941        C954   1.274       .  A
O941       Cd948   2.084       .  S
O942        C960   1.275       .  A
O942       Cd951   2.081       .  S
O943        C957   1.275       .  A
O943       Cd947   2.081       .  S
O944        C955   1.274       .  A
O944       Cd947   2.080       .  S
Zn945       O956   2.002       .  S
Zn945       O958   2.001       .  S
Zn945       O950   1.930       .  S
O946        C957   1.275       .  A
O946       Cd951   2.064       .  S
Cd947       O949   2.065       .  S
Cd947       O950   2.007       .  S
Cd948       O952   2.079       .  S
Cd948       O961   2.066       .  S
Cd948       O950   2.006       .  S
O949        C959   1.275       .  A
O950       Cd951   2.006       .  S
Cd951       O953   2.081       .  S
O952        C959   1.275       .  A
C954        O958   1.271       .  A
C955       C1997   1.459   1_455  S
C960        O961   1.276       .  A
O962        C978   1.271       .  A
O962       Zn968   2.003       .  S
C963        O979   1.272       .  A
C963        O976   1.274       .  A
O964        C977   1.274       .  A
O964       Cd971   2.080       .  S
O965        C983   1.275       .  A
O965       Cd974   2.080       .  S
O966        C980   1.274       .  A
O966       Cd970   2.078       .  S
O967        C978   1.274       .  A
O967       Cd970   2.080       .  S
Zn968       O979   2.006       .  S
Zn968       O981   2.004       .  S
Zn968       O973   1.929       .  S
O969        C980   1.276       .  A
O969       Cd974   2.064       .  S
Cd970       O972   2.062       .  S
Cd970       O973   2.006       .  S
Cd971       O975   2.077       .  S
Cd971       O984   2.065       .  S
Cd971       O973   2.006       .  S
O972        C982   1.275       .  A
O973       Cd974   2.005       .  S
Cd974       O976   2.082       .  S
O975        C982   1.274       .  A
C977        O981   1.271       .  A
C980       C2039   1.470   1_455  S
C983        O984   1.275       .  A
C985        N990   1.359       .  A
C985       C1282   1.460       .  S
N986        C987   1.355   1_554  A
C987        N988   1.359       .  A
C987       C1155   1.460       .  S
C989        N990   1.361       .  A
C991        N992   1.360       .  A
C991        N996   1.353       .  A
C991       C1227   1.468       .  S
N992        C993   1.363       .  A
N994        C995   1.360       .  A
C995       C1130   1.469       .  S
C997       N1002   1.360       .  A
C997       C1230   1.469       .  S
N998        C999   1.353       .  A
C999       N1000   1.360       .  A
C999       C1262   1.469       .  S
N1000      C1001   1.364       .  A
C1001      C1041   1.477       .  S
C1003      N1004   1.362   1_455  A
C1003      C1095   1.470       .  S
N1004      C1661   1.362       .  A
C1005      N1660   1.362   1_565  A
C1005      N2318   1.362       .  A
C1005      C1035   1.476       .  S
N1006      C2317   1.362       .  A
N1006      C1007   1.358   1_655  A
C1007      N1008   1.352       .  A
C1007      C1140   1.460       .  S
C1009      N1010   1.361       .  A
C1009      N1014   1.356       .  A
C1009      C1264   1.470       .  S
N1010      C1011   1.362       .  A
C1011      N1012   1.361       .  A
N1012      C1013   1.357       .  A
C1013      N1014   1.353       .  A
C1013      C2595   1.459       .  S
C1015      N1016   1.361       .  A
C1015      N1020   1.353       .  A
C1015      C1128   1.470       .  S
N1016      C1017   1.365       .  A
C1017      N1018   1.364       .  A
N1018      C1019   1.361       .  A
C1019      N1020   1.353       .  A
C1019      C2405   1.470       .  S
C1021      N1022   1.362       .  A
C1021      C1265   1.471       .  S
C1023      N1024   1.362   1_554  A
N1024      C1025   1.358       .  A
C1025      N1026   1.352       .  A
C1025      C1181   1.459       .  S
C1027      N1032   1.360       .  A
C1027      C1096   1.468       .  S
N1028      C1029   1.353       .  A
C1029      N1030   1.360       .  A
C1029      C1310   1.468       .  S
N1030      C1031   1.363       .  A
C1033      N1034   1.362       .  A
C1033      C1131   1.470       .  S
C1035      N1036   1.361       .  A
N1036      C1037   1.357       .  A
C1037      N1038   1.353       .  A
C1037      C1196   1.459       .  S
C1039      N1040   1.361   1_455  A
C1039      C1311   1.470       .  S
N1040      C1697   1.363       .  A
C1041      N1696   1.363   1_565  A
C1041      N2354   1.362       .  A
N1042      C2353   1.362       .  A
N1042      C1043   1.358   1_655  A
C1043      N1044   1.352       .  A
C1043      C1268   1.459       .  S
C1045      N1046   1.359       .  A
C1045      N1050   1.355       .  A
C1045      C1195   1.459       .  S
N1046      C1047   1.360       .  A
C1047      N1048   1.360       .  A
N1048      C1049   1.358       .  A
C1049      N1050   1.355       .  A
C1049      C2466   1.460       .  S
C1051      N1052   1.361       .  A
C1051      N1056   1.353       .  A
C1051      C1229   1.469       .  S
N1052      C1053   1.364       .  A
C1053      N1054   1.364       .  A
N1054      C1055   1.361       .  A
C1055      N1056   1.353       .  A
C1055      C2620   1.470       .  S
C1057      N1058   1.356       .  A
C1057      N1062   1.362       .  A
C1057      C1159   1.470       .  S
N1058      C1059   1.352       .  A
C1059      N1060   1.358       .  A
C1059      C1076   1.460       .  S
N1060      C1061   1.362       .  A
C1061      N1062   1.363       .  A
C1061      C1166   1.476       .  S
C1063      N1064   1.356       .  A
C1063      N1068   1.361       .  A
C1063      C1287   1.470       .  S
N1064      C1065   1.353       .  A
C1065      N1066   1.358       .  A
C1065      C1306   1.458       .  S
N1066      C1067   1.361       .  A
C1067      N1068   1.362       .  A
C1067      C1240   1.474       .  S
C1069      N1070   1.359       .  A
C1069      N1074   1.355       .  A
C1069      C1291   1.460       .  S
N1070      C1071   1.361       .  A
C1071      N1072   1.362       .  A
C1071      C1135   1.476       .  S
N1072      C1073   1.359       .  A
C1073      N1074   1.355       .  A
C1073      C1091   1.461       .  S
O1075      C1091   1.272       .  A
O1075     Zn1081   2.008       .  S
C1076      O1092   1.272       .  A
C1076      O1089   1.274       .  A
O1077      C1090   1.274       .  A
O1077     Cd1084   2.081       .  S
O1078      C1096   1.275       .  A
O1078     Cd1087   2.060       .  S
O1079      C1093   1.276       .  A
O1079     Cd1083   2.064       .  S
O1080      C1091   1.274       .  A
O1080     Cd1083   2.082       .  S
Zn1081     O1092   2.010       .  S
Zn1081     O1094   2.007       .  S
Zn1081     O1086   1.931       .  S
O1082      C1093   1.274       .  A
O1082     Cd1087   2.079       .  S
Cd1083     O1085   2.079       .  S
Cd1083     O1086   2.005       .  S
Cd1084     O1088   2.064       .  S
Cd1084     O1097   2.078       .  S
Cd1084     O1086   2.007       .  S
O1085      C1095   1.275       .  A
O1086     Cd1087   2.007       .  S
Cd1087     O1089   2.079       .  S
O1088      C1095   1.275       .  A
C1090      C1104   1.460       .  S
C1090      O1094   1.272       .  A
C1093      C2331   1.470   1_455  S
C1096      O1097   1.274       .  A
C1098      N1099   1.359       .  A
C1098      N1103   1.355       .  A
C1098      C1111   1.459       .  S
N1099      C1100   1.361       .  A
C1100      N1101   1.361       .  A
C1100      C1176   1.475       .  S
N1101      C1102   1.359       .  A
C1102      N1103   1.355       .  A
C1102      C1224   1.461       .  S
C1104      N1105   1.359       .  A
C1104      N1109   1.355       .  A
N1105      C1106   1.361       .  A
C1106      N1107   1.360       .  A
C1106      C1207   1.474       .  S
N1107      C1108   1.358       .  A
C1108      N1109   1.355       .  A
C1108      C1125   1.459       .  S
O1110      C1126   1.272       .  A
O1110     Zn1116   2.007       .  S
C1111      O1127   1.272       .  A
C1111      O1124   1.274       .  A
O1112      C1125   1.274       .  A
O1112     Cd1119   2.080       .  S
O1113      C1131   1.275       .  A
O1113     Cd1122   2.079       .  S
O1114      C1128   1.274       .  A
O1114     Cd1118   2.080       .  S
O1115      C1126   1.274       .  A
O1115     Cd1118   2.080       .  S
Zn1116     O1127   2.006       .  S
Zn1116     O1129   2.007       .  S
Zn1116     O1121   1.931       .  S
O1117      C1128   1.276       .  A
O1117     Cd1122   2.065       .  S
Cd1118     O1120   2.061       .  S
Cd1118     O1121   2.006       .  S
Cd1119     O1123   2.079       .  S
Cd1119     O1132   2.065       .  S
Cd1119     O1121   2.007       .  S
O1120      C1130   1.275       .  A
O1121     Cd1122   2.004       .  S
Cd1122     O1124   2.080       .  S
O1123      C1130   1.274       .  A
C1125      O1129   1.272       .  A
C1126      C1164   1.460       .  S
C1131      O1132   1.275       .  A
C1133      N1134   1.360       .  A
C1133      N1138   1.354       .  A
C1133      C1160   1.469       .  S
N1134      C1135   1.363       .  A
C1135      N1136   1.364       .  A
N1136      C1137   1.361       .  A
C1137      N1138   1.353       .  A
C1137      C1285   1.470       .  S
O1139      C1155   1.272       .  A
O1139     Zn1145   2.011       .  S
C1140      O1156   1.272       .  A
C1140      O1153   1.274       .  A
O1141      C1154   1.274       .  A
O1141     Cd1148   2.080       .  S
O1142      C1160   1.275       .  A
O1142     Cd1151   2.061       .  S
O1143      C1157   1.276       .  A
O1143     Cd1147   2.064       .  S
O1144      C1155   1.274       .  A
O1144     Cd1147   2.079       .  S
Zn1145     O1156   2.009       .  S
Zn1145     O1158   2.007       .  S
Zn1145     O1150   1.931       .  S
O1146      C1157   1.274       .  A
O1146     Cd1151   2.079       .  S
Cd1147     O1149   2.079       .  S
Cd1147     O1150   2.006       .  S
Cd1148     O1152   2.065       .  S
Cd1148     O1161   2.080       .  S
Cd1148     O1150   2.007       .  S
O1149      C1159   1.275       .  A
O1150     Cd1151   2.007       .  S
Cd1151     O1153   2.080       .  S
O1152      C1159   1.275       .  A
C1154      C2361   1.460   1_455  S
C1154      O1158   1.272       .  A
C1157      C1168   1.470       .  S
C1160      O1161   1.275       .  A
C1162      N1163   1.356       .  A
C1162      N1167   1.362       .  A
C1162      C1201   1.470       .  S
N1163      C1164   1.352       .  A
C1164      N1165   1.357       .  A
N1165      C1166   1.362       .  A
C1166      N1167   1.363       .  A
C1168      N1169   1.361       .  A
C1168      N1173   1.353       .  A
N1169      C1170   1.364       .  A
C1170      N1171   1.364       .  A
C1170      C1234   1.478       .  S
N1171      C1172   1.360       .  A
C1172      N1173   1.353       .  A
C1172      C1198   1.470       .  S
C1174      N1175   1.361       .  A
C1174      N1179   1.356       .  A
C1174      C1200   1.470       .  S
N1175      C1176   1.363       .  A
C1176      N1177   1.361       .  A
N1177      C1178   1.358       .  A
C1178      N1179   1.353       .  A
C1178      C1260   1.458       .  S
O1180      C1196   1.271       .  A
O1180     Zn1186   2.004       .  S
C1181      O1197   1.271       .  A
C1181      O1194   1.274       .  A
O1182      C1195   1.274       .  A
O1182     Cd1189   2.081       .  S
O1183      C1201   1.275       .  A
O1183     Cd1192   2.079       .  S
O1184      C1198   1.275       .  A
O1184     Cd1188   2.080       .  S
O1185      C1196   1.274       .  A
O1185     Cd1188   2.080       .  S
Zn1186     O1197   2.003       .  S
Zn1186     O1199   2.003       .  S
Zn1186     O1191   1.930       .  S
O1187      C1198   1.275       .  A
O1187     Cd1192   2.063       .  S
Cd1188     O1190   2.065       .  S
Cd1188     O1191   2.007       .  S
Cd1189     O1193   2.079       .  S
Cd1189     O1202   2.065       .  S
Cd1189     O1191   2.005       .  S
O1190      C1200   1.275       .  A
O1191     Cd1192   2.006       .  S
Cd1192     O1194   2.081       .  S
O1193      C1200   1.275       .  A
C1195      O1199   1.271       .  A
C1201      O1202   1.275       .  A
C1203      N1204   1.355       .  A
C1203      N1208   1.358       .  A
C1203      C1305   1.459       .  S
N1204      C1205   1.355       .  A
C1205      N1206   1.359       .  A
C1205      C1210   1.461       .  S
N1206      C1207   1.361       .  A
C1207      N1208   1.360       .  A
O1209      C1225   1.272       .  A
O1209     Zn1215   2.009       .  S
C1210      O1226   1.272       .  A
C1210      O1223   1.274       .  A
O1211      C1224   1.274       .  A
O1211     Cd1218   2.082       .  S
O1212      C1230   1.275       .  A
O1212     Cd1221   2.063       .  S
O1213      C1227   1.275       .  A
O1213     Cd1217   2.062       .  S
O1214      C1225   1.274       .  A
O1214     Cd1217   2.081       .  S
Zn1215     O1226   2.009       .  S
Zn1215     O1228   2.007       .  S
Zn1215     O1220   1.930       .  S
O1216      C1227   1.274       .  A
O1216     Cd1221   2.076       .  S
Cd1217     O1219   2.078       .  S
Cd1217     O1220   2.007       .  S
Cd1218     O1222   2.064       .  S
Cd1218     O1231   2.077       .  S
Cd1218     O1220   2.006       .  S
O1219      C1229   1.274       .  A
O1220     Cd1221   2.006       .  S
Cd1221     O1223   2.081       .  S
O1222      C1229   1.276       .  A
C1224      O1228   1.272       .  A
C1225      C1242   1.461       .  S
C1230      O1231   1.274       .  A
C1232      N1233   1.362       .  A
C1232      N1237   1.355       .  A
C1232      C1288   1.471       .  S
N1233      C1234   1.363       .  A
C1234      N1235   1.363       .  A
N1235      C1236   1.359       .  A
C1236      N1237   1.352       .  A
C1236      C1245   1.460       .  S
C1238      N1239   1.359       .  A
C1238      N1243   1.355       .  A
C1238      C1259   1.459       .  S
N1239      C1240   1.360       .  A
C1240      N1241   1.361       .  A
N1241      C1242   1.359       .  A
C1242      N1243   1.355       .  A
O1244      C1260   1.271       .  A
O1244     Zn1250   2.002       .  S
C1245      O1261   1.271       .  A
C1245      O1258   1.274       .  A
O1246      C1259   1.274       .  A
O1246     Cd1253   2.081       .  S
O1247      C1265   1.275       .  A
O1247     Cd1256   2.081       .  S
O1248      C1262   1.275       .  A
O1248     Cd1252   2.079       .  S
O1249      C1260   1.274       .  A
O1249     Cd1252   2.079       .  S
Zn1250     O1261   2.005       .  S
Zn1250     O1263   2.004       .  S
Zn1250     O1255   1.930       .  S
O1251      C1262   1.275       .  A
O1251     Cd1256   2.062       .  S
Cd1252     O1254   2.064       .  S
Cd1252     O1255   2.007       .  S
Cd1253     O1257   2.080       .  S
Cd1253     O1266   2.066       .  S
Cd1253     O1255   2.005       .  S
O1254      C1264   1.275       .  A
O1255     Cd1256   2.005       .  S
Cd1256     O1258   2.083       .  S
O1257      C1264   1.275       .  A
C1259      O1263   1.271       .  A
C1265      O1266   1.276       .  A
O1267      C1283   1.271       .  A
O1267     Zn1273   2.001       .  S
C1268      O1284   1.271       .  A
C1268      O1281   1.274       .  A
O1269      C1282   1.274       .  A
O1269     Cd1276   2.084       .  S
O1270      C1288   1.275       .  A
O1270     Cd1279   2.081       .  S
O1271      C1285   1.275       .  A
O1271     Cd1275   2.081       .  S
O1272      C1283   1.274       .  A
O1272     Cd1275   2.080       .  S
Zn1273     O1284   2.002       .  S
Zn1273     O1286   2.001       .  S
Zn1273     O1278   1.930       .  S
O1274      C1285   1.275       .  A
O1274     Cd1279   2.064       .  S
Cd1275     O1277   2.065       .  S
Cd1275     O1278   2.007       .  S
Cd1276     O1280   2.079       .  S
Cd1276     O1289   2.066       .  S
Cd1276     O1278   2.006       .  S
O1277      C1287   1.275       .  A
O1278     Cd1279   2.006       .  S
Cd1279     O1281   2.081       .  S
O1280      C1287   1.275       .  A
C1282      O1286   1.271       .  A
C1283      C2325   1.459   1_455  S
C1288      O1289   1.276       .  A
O1290      C1306   1.271       .  A
O1290     Zn1296   2.003       .  S
C1291      O1307   1.272       .  A
C1291      O1304   1.274       .  A
O1292      C1305   1.274       .  A
O1292     Cd1299   2.080       .  S
O1293      C1311   1.275       .  A
O1293     Cd1302   2.080       .  S
O1294      C1308   1.274       .  A
O1294     Cd1298   2.078       .  S
O1295      C1306   1.274       .  A
O1295     Cd1298   2.080       .  S
Zn1296     O1307   2.006       .  S
Zn1296     O1309   2.004       .  S
Zn1296     O1301   1.929       .  S
O1297      C1308   1.276       .  A
O1297     Cd1302   2.064       .  S
Cd1298     O1300   2.062       .  S
Cd1298     O1301   2.006       .  S
Cd1299     O1303   2.077       .  S
Cd1299     O1312   2.065       .  S
Cd1299     O1301   2.006       .  S
O1300      C1310   1.275       .  A
O1301     Cd1302   2.005       .  S
Cd1302     O1304   2.082       .  S
O1303      C1310   1.274       .  A
C1305      O1309   1.271       .  A
C1308      C2367   1.470   1_455  S
C1311      O1312   1.275       .  A
C1313      N1642   1.355       .  A
C1313      N1318   1.359       .  A
C1313      C1610   1.460       .  S
N1314      C1641   1.355       .  A
N1314      C1315   1.355       .  A
C1315      N1316   1.359       .  A
C1315      C1483   1.460       .  S
N1316      C1645   1.361       .  A
C1317      N1644   1.361       .  A
C1317      N1318   1.361   1_556  A
C1317      C2015   1.475       .  S
C1319      N1320   1.360       .  A
C1319      N1324   1.353   1_554  A
C1319      C1555   1.468       .  S
N1320      C1321   1.363       .  A
C1321      N1650   1.364   1_554  A
C1321      C2335   1.476   1_545  S
N1322      C1649   1.364       .  A
N1322      C1323   1.360       .  A
C1323      N1652   1.353       .  A
C1323      C1458   1.469       .  S
N1324      C1651   1.353       .  A
C1325      N1982   1.353   1_545  A
C1325      N1330   1.360       .  A
C1325      C1558   1.469       .  S
N1326      C1981   1.353       .  A
N1326      C1327   1.353       .  A
C1327      N1328   1.360       .  A
C1327      C1590   1.469       .  S
N1328      C1329   1.364       .  A
C1329      N1986   1.363       .  A
C1329      C1369   1.476       .  S
N1330      C1985   1.363   1_545  A
C1331      N1332   1.362       .  A
C1331      N1992   1.356   1_545  A
C1331      C1423   1.470       .  S
C1333      C1363   1.476       .  S
N1334      C1335   1.358       .  A
C1335      N1336   1.352       .  A
C1335      C1468   1.460       .  S
N1336      C1987   1.356       .  A
C1337      N1338   1.361       .  A
C1337      N1342   1.356       .  A
C1337      C1592   1.470       .  S
N1338      C1339   1.362       .  A
C1339      N1340   1.361       .  A
C1339      C1703   1.474   1_554  S
N1340      C1341   1.357       .  A
C1341      N1342   1.353       .  A
C1343      N1344   1.361       .  A
C1343      N1348   1.353       .  A
C1343      C1456   1.470       .  S
N1344      C1345   1.365       .  A
C1345      N1346   1.364       .  A
C1345      C1709   1.479       .  S
N1346      C1347   1.361       .  A
C1347      N1348   1.353       .  A
C1349      N1350   1.362       .  A
C1349      N1682   1.355   1_554  A
C1349      C1593   1.471       .  S
N1350      C1679   1.363       .  A
C1351      N1678   1.363       .  A
C1351      N1352   1.362       .  A
C1351      C2305   1.476       .  S
N1352      C1353   1.358       .  A
C1353      N1354   1.352       .  A
C1353      C1509   1.459       .  S
N1354      C1677   1.355       .  A
C1355      N1684   1.353       .  A
C1355      N1360   1.360       .  A
C1355      C1424   1.468       .  S
N1356      C1683   1.353       .  A
N1356      C1357   1.353   1_556  A
C1357      N1358   1.360       .  A
C1357      C1638   1.469       .  S
N1358      C1359   1.363   1_554  A
C1359      N1688   1.363       .  A
C1359      C1973   1.475   1_545  S
N1360      C1687   1.363       .  A
C1361      N1362   1.362       .  A
C1361      N2022   1.356   1_545  A
C1361      C1459   1.470       .  S
N1362      C2019   1.363   1_545  A
C1363      N2018   1.363       .  A
C1363      N1364   1.361       .  A
N1364      C1365   1.357       .  A
C1365      N1366   1.353       .  A
C1365      C1524   1.459       .  S
N1366      C2017   1.356       .  A
C1367      N1368   1.361       .  A
C1367      N2028   1.355   1_545  A
C1367      C1639   1.470       .  S
N1370      C1371   1.358       .  A
C1371      N1372   1.352       .  A
C1371      C1596   1.459       .  S
N1372      C2023   1.355       .  A
C1373      N1374   1.359       .  A
C1373      N1378   1.355       .  A
C1373      C1523   1.459       .  S
N1374      C1375   1.360       .  A
C1375      N1376   1.360       .  A
C1375      C1667   1.474       .  S
N1376      C1377   1.358       .  A
C1377      N1378   1.355       .  A
C1379      N1380   1.361       .  A
C1379      N1384   1.353       .  A
C1379      C1557   1.469       .  S
N1380      C1381   1.364       .  A
C1381      N1382   1.364       .  A
C1381      C1673   1.479   1_554  S
N1382      C1383   1.361       .  A
C1383      N1384   1.353       .  A
C1385      N1386   1.356       .  A
C1385      N1390   1.362       .  A
C1385      C1487   1.470       .  S
N1386      C1387   1.352       .  A
C1387      N1388   1.358       .  A
C1387      C1404   1.460       .  S
N1388      C1389   1.362       .  A
C1389      N1390   1.363       .  A
C1389      C1494   1.476       .  S
C1391      N1392   1.356       .  A
C1391      N1396   1.361       .  A
C1391      C1615   1.470       .  S
N1392      C1393   1.353       .  A
C1393      N1394   1.358       .  A
C1393      C1634   1.458       .  S
N1394      C1395   1.361       .  A
C1395      N1396   1.362       .  A
C1395      C1568   1.474       .  S
C1397      N1398   1.359       .  A
C1397      N1402   1.355       .  A
C1397      C1619   1.460       .  S
N1398      C1399   1.361       .  A
C1399      N1400   1.362       .  A
C1399      C1463   1.476       .  S
N1400      C1401   1.359       .  A
C1401      N1402   1.355       .  A
C1401      C1419   1.461       .  S
O1403      C1419   1.272       .  A
O1403     Zn1409   2.008       .  S
C1404      O1420   1.272       .  A
C1404      O1417   1.274       .  A
O1405      C1418   1.274       .  A
O1405     Cd1412   2.081       .  S
O1406      C1424   1.275       .  A
O1406     Cd1415   2.060       .  S
O1407      C1421   1.276       .  A
O1407     Cd1411   2.064       .  S
O1408      C1419   1.274       .  A
O1408     Cd1411   2.082       .  S
Zn1409     O1420   2.010       .  S
Zn1409     O1422   2.007       .  S
Zn1409     O1414   1.931       .  S
O1410      C1421   1.274       .  A
O1410     Cd1415   2.079       .  S
Cd1411     O1413   2.079       .  S
Cd1411     O1414   2.005       .  S
Cd1412     O1416   2.064       .  S
Cd1412     O1425   2.078       .  S
Cd1412     O1414   2.007       .  S
O1413      C1423   1.275       .  A
O1414     Cd1415   2.007       .  S
Cd1415     O1417   2.079       .  S
O1416      C1423   1.275       .  A
C1418      C1432   1.460       .  S
C1418      O1422   1.272       .  A
C1424      O1425   1.274       .  A
C1426      N1427   1.359       .  A
C1426      N1431   1.355       .  A
C1426      C1439   1.459       .  S
N1427      C1428   1.361       .  A
C1428      N1429   1.361       .  A
C1428      C1504   1.475       .  S
N1429      C1430   1.359       .  A
C1430      N1431   1.355       .  A
C1430      C1552   1.461       .  S
C1432      N1433   1.359       .  A
C1432      N1437   1.355       .  A
N1433      C1434   1.361       .  A
C1434      N1435   1.360       .  A
C1434      C1535   1.474       .  S
N1435      C1436   1.358       .  A
C1436      N1437   1.355       .  A
C1436      C1453   1.459       .  S
O1438      C1454   1.272       .  A
O1438     Zn1444   2.007       .  S
C1439      O1455   1.272       .  A
C1439      O1452   1.274       .  A
O1440      C1453   1.274       .  A
O1440     Cd1447   2.080       .  S
O1441      C1459   1.275       .  A
O1441     Cd1450   2.079       .  S
O1442      C1456   1.274       .  A
O1442     Cd1446   2.080       .  S
O1443      C1454   1.274       .  A
O1443     Cd1446   2.080       .  S
Zn1444     O1455   2.006       .  S
Zn1444     O1457   2.007       .  S
Zn1444     O1449   1.931       .  S
O1445      C1456   1.276       .  A
O1445     Cd1450   2.065       .  S
Cd1446     O1448   2.061       .  S
Cd1446     O1449   2.006       .  S
Cd1447     O1451   2.079       .  S
Cd1447     O1460   2.065       .  S
Cd1447     O1449   2.007       .  S
O1448      C1458   1.275       .  A
O1449     Cd1450   2.004       .  S
Cd1450     O1452   2.080       .  S
O1451      C1458   1.274       .  A
C1453      O1457   1.272       .  A
C1454      C1492   1.460       .  S
C1459      O1460   1.275       .  A
C1461      N1462   1.360       .  A
C1461      N1466   1.354       .  A
C1461      C1488   1.469       .  S
N1462      C1463   1.363       .  A
C1463      N1464   1.364       .  A
N1464      C1465   1.361       .  A
C1465      N1466   1.353       .  A
C1465      C1613   1.470       .  S
O1467      C1483   1.272       .  A
O1467     Zn1473   2.011       .  S
C1468      O1484   1.272       .  A
C1468      O1481   1.274       .  A
O1469      C1482   1.274       .  A
O1469     Cd1476   2.080       .  S
O1470      C1488   1.275       .  A
O1470     Cd1479   2.061       .  S
O1471      C1485   1.276       .  A
O1471     Cd1475   2.064       .  S
O1472      C1483   1.274       .  A
O1472     Cd1475   2.079       .  S
Zn1473     O1484   2.009       .  S
Zn1473     O1486   2.007       .  S
Zn1473     O1478   1.931       .  S
O1474      C1485   1.274       .  A
O1474     Cd1479   2.079       .  S
Cd1475     O1477   2.079       .  S
Cd1475     O1478   2.006       .  S
Cd1476     O1480   2.065       .  S
Cd1476     O1489   2.080       .  S
Cd1476     O1478   2.007       .  S
O1477      C1487   1.275       .  A
O1478     Cd1479   2.007       .  S
Cd1479     O1481   2.080       .  S
O1480      C1487   1.275       .  A
C1482      O1486   1.272       .  A
C1485      C1496   1.470       .  S
C1488      O1489   1.275       .  A
C1490      N1491   1.356       .  A
C1490      N1495   1.362       .  A
C1490      C1529   1.470       .  S
N1491      C1492   1.352       .  A
C1492      N1493   1.357       .  A
N1493      C1494   1.362       .  A
C1494      N1495   1.363       .  A
C1496      N1497   1.361       .  A
C1496      N1501   1.353       .  A
N1497      C1498   1.364       .  A
C1498      N1499   1.364       .  A
C1498      C1562   1.478       .  S
N1499      C1500   1.360       .  A
C1500      N1501   1.353       .  A
C1500      C1526   1.470       .  S
C1502      N1503   1.361       .  A
C1502      N1507   1.356       .  A
C1502      C1528   1.470       .  S
N1503      C1504   1.363       .  A
C1504      N1505   1.361       .  A
N1505      C1506   1.358       .  A
C1506      N1507   1.353       .  A
C1506      C1588   1.458       .  S
O1508      C1524   1.271       .  A
O1508     Zn1514   2.004       .  S
C1509      O1525   1.271       .  A
C1509      O1522   1.274       .  A
O1510      C1523   1.274       .  A
O1510     Cd1517   2.081       .  S
O1511      C1529   1.275       .  A
O1511     Cd1520   2.079       .  S
O1512      C1526   1.275       .  A
O1512     Cd1516   2.080       .  S
O1513      C1524   1.274       .  A
O1513     Cd1516   2.080       .  S
Zn1514     O1525   2.003       .  S
Zn1514     O1527   2.003       .  S
Zn1514     O1519   1.930       .  S
O1515      C1526   1.275       .  A
O1515     Cd1520   2.063       .  S
Cd1516     O1518   2.065       .  S
Cd1516     O1519   2.007       .  S
Cd1517     O1521   2.079       .  S
Cd1517     O1530   2.065       .  S
Cd1517     O1519   2.005       .  S
O1518      C1528   1.275       .  A
O1519     Cd1520   2.006       .  S
Cd1520     O1522   2.080       .  S
O1521      C1528   1.275       .  A
C1523      O1527   1.271       .  A
C1529      O1530   1.275       .  A
C1531      N1532   1.355       .  A
C1531      N1536   1.358       .  A
C1531      C1633   1.459       .  S
N1532      C1533   1.355       .  A
C1533      N1534   1.359       .  A
C1533      C1538   1.461       .  S
N1534      C1535   1.361       .  A
C1535      N1536   1.360       .  A
O1537      C1553   1.272       .  A
O1537     Zn1543   2.009       .  S
C1538      O1554   1.272       .  A
C1538      O1551   1.274       .  A
O1539      C1552   1.274       .  A
O1539     Cd1546   2.082       .  S
O1540      C1558   1.275       .  A
O1540     Cd1549   2.063       .  S
O1541      C1555   1.275       .  A
O1541     Cd1545   2.062       .  S
O1542      C1553   1.274       .  A
O1542     Cd1545   2.081       .  S
Zn1543     O1554   2.009       .  S
Zn1543     O1556   2.007       .  S
Zn1543     O1548   1.930       .  S
O1544      C1555   1.274       .  A
O1544     Cd1549   2.076       .  S
Cd1545     O1547   2.078       .  S
Cd1545     O1548   2.007       .  S
Cd1546     O1550   2.064       .  S
Cd1546     O1559   2.077       .  S
Cd1546     O1548   2.006       .  S
O1547      C1557   1.274       .  A
O1548     Cd1549   2.006       .  S
Cd1549     O1551   2.081       .  S
O1550      C1557   1.276       .  A
C1552      O1556   1.272       .  A
C1553      C1570   1.461       .  S
C1558      O1559   1.274       .  A
C1560      N1561   1.362       .  A
C1560      N1565   1.355       .  A
C1560      C1616   1.471       .  S
N1561      C1562   1.364       .  A
C1562      N1563   1.362       .  A
N1563      C1564   1.359       .  A
C1564      N1565   1.352       .  A
C1564      C1573   1.460       .  S
C1566      N1567   1.359       .  A
C1566      N1571   1.355       .  A
C1566      C1587   1.459       .  S
N1567      C1568   1.360       .  A
C1568      N1569   1.361       .  A
N1569      C1570   1.359       .  A
C1570      N1571   1.355       .  A
O1572      C1588   1.271       .  A
O1572     Zn1578   2.002       .  S
C1573      O1589   1.271       .  A
C1573      O1586   1.274       .  A
O1574      C1587   1.274       .  A
O1574     Cd1581   2.081       .  S
O1575      C1593   1.275       .  A
O1575     Cd1584   2.081       .  S
O1576      C1590   1.275       .  A
O1576     Cd1580   2.079       .  S
O1577      C1588   1.274       .  A
O1577     Cd1580   2.079       .  S
Zn1578     O1589   2.005       .  S
Zn1578     O1591   2.004       .  S
Zn1578     O1583   1.930       .  S
O1579      C1590   1.275       .  A
O1579     Cd1584   2.062       .  S
Cd1580     O1582   2.064       .  S
Cd1580     O1583   2.007       .  S
Cd1581     O1585   2.080       .  S
Cd1581     O1594   2.066       .  S
Cd1581     O1583   2.005       .  S
O1582      C1592   1.275       .  A
O1583     Cd1584   2.005       .  S
Cd1584     O1586   2.083       .  S
O1585      C1592   1.275       .  A
C1587      O1591   1.271       .  A
C1593      O1594   1.276       .  A
O1595      C1611   1.271       .  A
O1595     Zn1601   2.001       .  S
C1596      O1612   1.271       .  A
C1596      O1609   1.274       .  A
O1597      C1610   1.274       .  A
O1597     Cd1604   2.084       .  S
O1598      C1616   1.275       .  A
O1598     Cd1607   2.081       .  S
O1599      C1613   1.275       .  A
O1599     Cd1603   2.081       .  S
O1600      C1611   1.274       .  A
O1600     Cd1603   2.080       .  S
Zn1601     O1612   2.002       .  S
Zn1601     O1614   2.001       .  S
Zn1601     O1606   1.930       .  S
O1602      C1613   1.275       .  A
O1602     Cd1607   2.064       .  S
Cd1603     O1605   2.065       .  S
Cd1603     O1606   2.007       .  S
Cd1604     O1608   2.079       .  S
Cd1604     O1617   2.066       .  S
Cd1604     O1606   2.006       .  S
O1605      C1615   1.275       .  A
O1606     Cd1607   2.006       .  S
Cd1607     O1609   2.081       .  S
O1608      C1615   1.275       .  A
C1610      O1614   1.271       .  A
C1616      O1617   1.276       .  A
O1618      C1634   1.271       .  A
O1618     Zn1624   2.003       .  S
C1619      O1635   1.272       .  A
C1619      O1632   1.274       .  A
O1620      C1633   1.274       .  A
O1620     Cd1627   2.080       .  S
O1621      C1639   1.275       .  A
O1621     Cd1630   2.080       .  S
O1622      C1636   1.274       .  A
O1622     Cd1626   2.079       .  S
O1623      C1634   1.274       .  A
O1623     Cd1626   2.080       .  S
Zn1624     O1635   2.006       .  S
Zn1624     O1637   2.004       .  S
Zn1624     O1629   1.929       .  S
O1625      C1636   1.276       .  A
O1625     Cd1630   2.064       .  S
Cd1626     O1628   2.062       .  S
Cd1626     O1629   2.006       .  S
Cd1627     O1631   2.077       .  S
Cd1627     O1640   2.065       .  S
Cd1627     O1629   2.006       .  S
O1628      C1638   1.275       .  A
O1629     Cd1630   2.005       .  S
Cd1630     O1632   2.082       .  S
O1631      C1638   1.274       .  A
C1633      O1637   1.271       .  A
C1639      O1640   1.275       .  A
C1641      N1646   1.359       .  A
C1641      C1938   1.460       .  S
N1642      C1643   1.355   1_554  A
C1643      N1644   1.359       .  A
C1643      C1811   1.460       .  S
C1645      N1646   1.361       .  A
C1645      C2343   1.475       .  S
C1647      N1648   1.360       .  A
C1647      N1652   1.353       .  A
C1647      C1883   1.468       .  S
N1648      C1649   1.363       .  A
C1649      C2007   1.476   1_545  S
N1650      C1651   1.360       .  A
C1651      C1786   1.469       .  S
C1653      N2310   1.353   1_545  A
C1653      N1658   1.360       .  A
C1653      C1886   1.469       .  S
N1654      C2309   1.353       .  A
N1654      C1655   1.353       .  A
C1655      N1656   1.360       .  A
C1655      C1918   1.469       .  S
N1656      C1657   1.364       .  A
C1657      N2314   1.363       .  A
C1657      C1697   1.477       .  S
N1658      C2313   1.363   1_545  A
C1659      N1660   1.362       .  A
C1659      N2320   1.356   1_545  A
C1659      C1751   1.470       .  S
C1661      C1691   1.476       .  S
N1662      C1663   1.358       .  A
C1663      N1664   1.352       .  A
C1663      C1796   1.460       .  S
N1664      C2315   1.356       .  A
C1665      N1666   1.361       .  A
C1665      N1670   1.356       .  A
C1665      C1920   1.470       .  S
N1666      C1667   1.362       .  A
C1667      N1668   1.361       .  A
N1668      C1669   1.357       .  A
C1669      N1670   1.353       .  A
C1671      N1672   1.361       .  A
C1671      N1676   1.353       .  A
C1671      C1784   1.470       .  S
N1672      C1673   1.365       .  A
C1673      N1674   1.364       .  A
N1674      C1675   1.361       .  A
C1675      N1676   1.353       .  A
C1677      N1678   1.362       .  A
C1677      C1921   1.471       .  S
C1679      N1680   1.362   1_554  A
C1679      C1977   1.476       .  S
N1680      C1681   1.358       .  A
C1681      N1682   1.352       .  A
C1681      C1837   1.459       .  S
C1683      N1688   1.360       .  A
C1683      C1752   1.468       .  S
N1684      C1685   1.353       .  A
C1685      N1686   1.360       .  A
C1685      C1966   1.469       .  S
N1686      C1687   1.363       .  A
C1687      C2301   1.475   1_545  S
C1689      N1690   1.362       .  A
C1689      N2350   1.356   1_545  A
C1689      C1787   1.470       .  S
N1690      C2347   1.363   1_545  A
C1691      N2346   1.363       .  A
C1691      N1692   1.361       .  A
N1692      C1693   1.357       .  A
C1693      N1694   1.353       .  A
C1693      C1852   1.459       .  S
N1694      C2345   1.356       .  A
C1695      N1696   1.361       .  A
C1695      N2356   1.355   1_545  A
C1695      C1967   1.470       .  S
N1698      C1699   1.358       .  A
C1699      N1700   1.352       .  A
C1699      C1924   1.459       .  S
N1700      C2351   1.355       .  A
C1701      N1702   1.359       .  A
C1701      N1706   1.355       .  A
C1701      C1851   1.459       .  S
N1702      C1703   1.360       .  A
C1703      N1704   1.360       .  A
N1704      C1705   1.358       .  A
C1705      N1706   1.355       .  A
C1707      N1708   1.361       .  A
C1707      N1712   1.353       .  A
C1707      C1885   1.469       .  S
N1708      C1709   1.364       .  A
C1709      N1710   1.364       .  A
N1710      C1711   1.361       .  A
C1711      N1712   1.353       .  A
C1713      N1714   1.356       .  A
C1713      N1718   1.362       .  A
C1713      C1815   1.470       .  S
N1714      C1715   1.352       .  A
C1715      N1716   1.358       .  A
C1715      C1732   1.460       .  S
N1716      C1717   1.362       .  A
C1717      N1718   1.363       .  A
C1717      C1822   1.476       .  S
C1719      N1720   1.356       .  A
C1719      N1724   1.361       .  A
C1719      C1943   1.470       .  S
N1720      C1721   1.353       .  A
C1721      N1722   1.358       .  A
C1721      C1962   1.458       .  S
N1722      C1723   1.361       .  A
C1723      N1724   1.362       .  A
C1723      C1896   1.474       .  S
C1725      N1726   1.359       .  A
C1725      N1730   1.355       .  A
C1725      C1947   1.460       .  S
N1726      C1727   1.361       .  A
C1727      N1728   1.362       .  A
C1727      C1791   1.476       .  S
N1728      C1729   1.359       .  A
C1729      N1730   1.355       .  A
C1729      C1747   1.461       .  S
O1731      C1747   1.272       .  A
O1731     Zn1737   2.008       .  S
C1732      O1748   1.272       .  A
C1732      O1745   1.274       .  A
O1733      C1746   1.274       .  A
O1733     Cd1740   2.081       .  S
O1734      C1752   1.275       .  A
O1734     Cd1743   2.060       .  S
O1735      C1749   1.276       .  A
O1735     Cd1739   2.064       .  S
O1736      C1747   1.274       .  A
O1736     Cd1739   2.082       .  S
Zn1737     O1748   2.010       .  S
Zn1737     O1750   2.007       .  S
Zn1737     O1742   1.931       .  S
O1738      C1749   1.274       .  A
O1738     Cd1743   2.079       .  S
Cd1739     O1741   2.079       .  S
Cd1739     O1742   2.005       .  S
Cd1740     O1744   2.064       .  S
Cd1740     O1753   2.078       .  S
Cd1740     O1742   2.007       .  S
O1741      C1751   1.275       .  A
O1742     Cd1743   2.007       .  S
Cd1743     O1745   2.079       .  S
O1744      C1751   1.275       .  A
C1746      C1760   1.460       .  S
C1746      O1750   1.272       .  A
C1752      O1753   1.274       .  A
C1754      N1755   1.359       .  A
C1754      N1759   1.355       .  A
C1754      C1767   1.459       .  S
N1755      C1756   1.361       .  A
C1756      N1757   1.361       .  A
C1756      C1832   1.475       .  S
N1757      C1758   1.359       .  A
C1758      N1759   1.355       .  A
C1758      C1880   1.461       .  S
C1760      N1761   1.359       .  A
C1760      N1765   1.355       .  A
N1761      C1762   1.361       .  A
C1762      N1763   1.360       .  A
C1762      C1863   1.474       .  S
N1763      C1764   1.359       .  A
C1764      N1765   1.355       .  A
C1764      C1781   1.459       .  S
O1766      C1782   1.272       .  A
O1766     Zn1772   2.007       .  S
C1767      O1783   1.272       .  A
C1767      O1780   1.274       .  A
O1768      C1781   1.274       .  A
O1768     Cd1775   2.080       .  S
O1769      C1787   1.275       .  A
O1769     Cd1778   2.079       .  S
O1770      C1784   1.274       .  A
O1770     Cd1774   2.080       .  S
O1771      C1782   1.274       .  A
O1771     Cd1774   2.080       .  S
Zn1772     O1783   2.006       .  S
Zn1772     O1785   2.007       .  S
Zn1772     O1777   1.931       .  S
O1773      C1784   1.276       .  A
O1773     Cd1778   2.065       .  S
Cd1774     O1776   2.061       .  S
Cd1774     O1777   2.006       .  S
Cd1775     O1779   2.079       .  S
Cd1775     O1788   2.065       .  S
Cd1775     O1777   2.007       .  S
O1776      C1786   1.275       .  A
O1777     Cd1778   2.004       .  S
Cd1778     O1780   2.080       .  S
O1779      C1786   1.274       .  A
C1781      O1785   1.272       .  A
C1782      C1820   1.460       .  S
C1787      O1788   1.275       .  A
C1789      N1790   1.360       .  A
C1789      N1794   1.354       .  A
C1789      C1816   1.469       .  S
N1790      C1791   1.363       .  A
C1791      N1792   1.364       .  A
N1792      C1793   1.361       .  A
C1793      N1794   1.353       .  A
C1793      C1941   1.470       .  S
O1795      C1811   1.272       .  A
O1795     Zn1801   2.011       .  S
C1796      O1812   1.272       .  A
C1796      O1809   1.274       .  A
O1797      C1810   1.274       .  A
O1797     Cd1804   2.080       .  S
O1798      C1816   1.275       .  A
O1798     Cd1807   2.061       .  S
O1799      C1813   1.276       .  A
O1799     Cd1803   2.064       .  S
O1800      C1811   1.274       .  A
O1800     Cd1803   2.079       .  S
Zn1801     O1812   2.009       .  S
Zn1801     O1814   2.007       .  S
Zn1801     O1806   1.931       .  S
O1802      C1813   1.274       .  A
O1802     Cd1807   2.079       .  S
Cd1803     O1805   2.079       .  S
Cd1803     O1806   2.006       .  S
Cd1804     O1808   2.065       .  S
Cd1804     O1817   2.080       .  S
Cd1804     O1806   2.007       .  S
O1805      C1815   1.274       .  A
O1806     Cd1807   2.007       .  S
Cd1807     O1809   2.080       .  S
O1808      C1815   1.275       .  A
C1810      O1814   1.272       .  A
C1813      C1824   1.470       .  S
C1816      O1817   1.275       .  A
C1818      N1819   1.356       .  A
C1818      N1823   1.362       .  A
C1818      C1857   1.470       .  S
N1819      C1820   1.352       .  A
C1820      N1821   1.357       .  A
N1821      C1822   1.362       .  A
C1822      N1823   1.363       .  A
C1824      N1825   1.361       .  A
C1824      N1829   1.353       .  A
N1825      C1826   1.364       .  A
C1826      N1827   1.364       .  A
C1826      C1890   1.478       .  S
N1827      C1828   1.360       .  A
C1828      N1829   1.353       .  A
C1828      C1854   1.470       .  S
C1830      N1831   1.361       .  A
C1830      N1835   1.356       .  A
C1830      C1856   1.470       .  S
N1831      C1832   1.363       .  A
C1832      N1833   1.361       .  A
N1833      C1834   1.358       .  A
C1834      N1835   1.353       .  A
C1834      C1916   1.458       .  S
O1836      C1852   1.271       .  A
O1836     Zn1842   2.004       .  S
C1837      O1853   1.271       .  A
C1837      O1850   1.274       .  A
O1838      C1851   1.274       .  A
O1838     Cd1845   2.081       .  S
O1839      C1857   1.275       .  A
O1839     Cd1848   2.079       .  S
O1840      C1854   1.275       .  A
O1840     Cd1844   2.080       .  S
O1841      C1852   1.274       .  A
O1841     Cd1844   2.080       .  S
Zn1842     O1853   2.003       .  S
Zn1842     O1855   2.003       .  S
Zn1842     O1847   1.930       .  S
O1843      C1854   1.275       .  A
O1843     Cd1848   2.063       .  S
Cd1844     O1846   2.065       .  S
Cd1844     O1847   2.007       .  S
Cd1845     O1849   2.079       .  S
Cd1845     O1858   2.065       .  S
Cd1845     O1847   2.005       .  S
O1846      C1856   1.275       .  A
O1847     Cd1848   2.006       .  S
Cd1848     O1850   2.080       .  S
O1849      C1856   1.275       .  A
C1851      O1855   1.271       .  A
C1857      O1858   1.275       .  A
C1859      N1860   1.355       .  A
C1859      N1864   1.358       .  A
C1859      C1961   1.459       .  S
N1860      C1861   1.355       .  A
C1861      N1862   1.359       .  A
C1861      C1866   1.461       .  S
N1862      C1863   1.361       .  A
C1863      N1864   1.360       .  A
O1865      C1881   1.272       .  A
O1865     Zn1871   2.009       .  S
C1866      O1882   1.272       .  A
C1866      O1879   1.274       .  A
O1867      C1880   1.274       .  A
O1867     Cd1874   2.082       .  S
O1868      C1886   1.275       .  A
O1868     Cd1877   2.063       .  S
O1869      C1883   1.275       .  A
O1869     Cd1873   2.062       .  S
O1870      C1881   1.274       .  A
O1870     Cd1873   2.081       .  S
Zn1871     O1882   2.009       .  S
Zn1871     O1884   2.007       .  S
Zn1871     O1876   1.930       .  S
O1872      C1883   1.274       .  A
O1872     Cd1877   2.076       .  S
Cd1873     O1875   2.078       .  S
Cd1873     O1876   2.007       .  S
Cd1874     O1878   2.064       .  S
Cd1874     O1887   2.077       .  S
Cd1874     O1876   2.006       .  S
O1875      C1885   1.274       .  A
O1876     Cd1877   2.006       .  S
Cd1877     O1879   2.081       .  S
O1878      C1885   1.276       .  A
C1880      O1884   1.272       .  A
C1881      C1898   1.461       .  S
C1886      O1887   1.274       .  A
C1888      N1889   1.362       .  A
C1888      N1893   1.355       .  A
C1888      C1944   1.471       .  S
N1889      C1890   1.364       .  A
C1890      N1891   1.363       .  A
N1891      C1892   1.359       .  A
C1892      N1893   1.352       .  A
C1892      C1901   1.460       .  S
C1894      N1895   1.359       .  A
C1894      N1899   1.355       .  A
C1894      C1915   1.459       .  S
N1895      C1896   1.360       .  A
C1896      N1897   1.361       .  A
N1897      C1898   1.359       .  A
C1898      N1899   1.355       .  A
O1900      C1916   1.271       .  A
O1900     Zn1906   2.002       .  S
C1901      O1917   1.271       .  A
C1901      O1914   1.274       .  A
O1902      C1915   1.274       .  A
O1902     Cd1909   2.081       .  S
O1903      C1921   1.275       .  A
O1903     Cd1912   2.081       .  S
O1904      C1918   1.274       .  A
O1904     Cd1908   2.079       .  S
O1905      C1916   1.274       .  A
O1905     Cd1908   2.079       .  S
Zn1906     O1917   2.005       .  S
Zn1906     O1919   2.004       .  S
Zn1906     O1911   1.930       .  S
O1907      C1918   1.275       .  A
O1907     Cd1912   2.062       .  S
Cd1908     O1910   2.064       .  S
Cd1908     O1911   2.007       .  S
Cd1909     O1913   2.080       .  S
Cd1909     O1922   2.066       .  S
Cd1909     O1911   2.005       .  S
O1910      C1920   1.275       .  A
O1911     Cd1912   2.005       .  S
Cd1912     O1914   2.083       .  S
O1913      C1920   1.275       .  A
C1915      O1919   1.271       .  A
C1921      O1922   1.276       .  A
O1923      C1939   1.271       .  A
O1923     Zn1929   2.001       .  S
C1924      O1940   1.271       .  A
C1924      O1937   1.274       .  A
O1925      C1938   1.274       .  A
O1925     Cd1932   2.084       .  S
O1926      C1944   1.275       .  A
O1926     Cd1935   2.081       .  S
O1927      C1941   1.275       .  A
O1927     Cd1931   2.081       .  S
O1928      C1939   1.274       .  A
O1928     Cd1931   2.080       .  S
Zn1929     O1940   2.002       .  S
Zn1929     O1942   2.001       .  S
Zn1929     O1934   1.930       .  S
O1930      C1941   1.275       .  A
O1930     Cd1935   2.064       .  S
Cd1931     O1933   2.065       .  S
Cd1931     O1934   2.007       .  S
Cd1932     O1936   2.079       .  S
Cd1932     O1945   2.066       .  S
Cd1932     O1934   2.006       .  S
O1933      C1943   1.275       .  A
O1934     Cd1935   2.006       .  S
Cd1935     O1937   2.081       .  S
O1936      C1943   1.275       .  A
C1938      O1942   1.271       .  A
C1944      O1945   1.276       .  A
O1946      C1962   1.271       .  A
O1946     Zn1952   2.003       .  S
C1947      O1963   1.272       .  A
C1947      O1960   1.274       .  A
O1948      C1961   1.274       .  A
O1948     Cd1955   2.080       .  S
O1949      C1967   1.275       .  A
O1949     Cd1958   2.080       .  S
O1950      C1964   1.274       .  A
O1950     Cd1954   2.078       .  S
O1951      C1962   1.274       .  A
O1951     Cd1954   2.080       .  S
Zn1952     O1963   2.006       .  S
Zn1952     O1965   2.004       .  S
Zn1952     O1957   1.929       .  S
O1953      C1964   1.276       .  A
O1953     Cd1958   2.064       .  S
Cd1954     O1956   2.062       .  S
Cd1954     O1957   2.006       .  S
Cd1955     O1959   2.077       .  S
Cd1955     O1968   2.065       .  S
Cd1955     O1957   2.006       .  S
O1956      C1966   1.275       .  A
O1957     Cd1958   2.005       .  S
Cd1958     O1960   2.082       .  S
O1959      C1966   1.274       .  A
C1961      O1965   1.271       .  A
C1967      O1968   1.275       .  A
C1969      N2298   1.355       .  A
C1969      N1974   1.359       .  A
C1969      C2266   1.460       .  S
N1970      C2297   1.355       .  A
N1970      C1971   1.355       .  A
C1971      N1972   1.359       .  A
C1971      C2139   1.460       .  S
N1972      C2301   1.361       .  A
C1973      N2300   1.361       .  A
C1973      N1974   1.361   1_556  A
C1975      N1976   1.360       .  A
C1975      N1980   1.353   1_554  A
C1975      C2211   1.468       .  S
N1976      C1977   1.363       .  A
C1977      N2306   1.364   1_554  A
N1978      C2305   1.364       .  A
N1978      C1979   1.360       .  A
C1979      N2308   1.353       .  A
C1979      C2114   1.469       .  S
N1980      C2307   1.353       .  A
C1981      N1986   1.360       .  A
C1981      C2214   1.469       .  S
N1982      C1983   1.353       .  A
C1983      N1984   1.360       .  A
C1983      C2246   1.469       .  S
N1984      C1985   1.364       .  A
C1985      C2025   1.477       .  S
C1987      N1988   1.362       .  A
C1987      C2079   1.470       .  S
C1989      C2019   1.476       .  S
N1990      C1991   1.358       .  A
C1991      N1992   1.352       .  A
C1991      C2124   1.460       .  S
C1993      N1994   1.361       .  A
C1993      N1998   1.356       .  A
C1993      C2248   1.470       .  S
N1994      C1995   1.362       .  A
C1995      N1996   1.361       .  A
C1995      C2359   1.474   1_554  S
N1996      C1997   1.357       .  A
C1997      N1998   1.353       .  A
C1999      N2000   1.361       .  A
C1999      N2004   1.353       .  A
C1999      C2112   1.470       .  S
N2000      C2001   1.365       .  A
C2001      N2002   1.364       .  A
C2001      C2365   1.479       .  S
N2002      C2003   1.361       .  A
C2003      N2004   1.353       .  A
C2005      N2006   1.362       .  A
C2005      N2338   1.355   1_554  A
C2005      C2249   1.471       .  S
N2006      C2335   1.363       .  A
C2007      N2334   1.363       .  A
C2007      N2008   1.362       .  A
N2008      C2009   1.358       .  A
C2009      N2010   1.352       .  A
C2009      C2165   1.459       .  S
N2010      C2333   1.355       .  A
C2011      N2340   1.353       .  A
C2011      N2016   1.360       .  A
C2011      C2080   1.468       .  S
N2012      C2339   1.353       .  A
N2012      C2013   1.353   1_556  A
C2013      N2014   1.360       .  A
C2013      C2294   1.469       .  S
N2014      C2015   1.363   1_554  A
C2015      N2344   1.363       .  A
N2016      C2343   1.363       .  A
C2017      N2018   1.362       .  A
C2017      C2115   1.470       .  S
C2019      N2020   1.361       .  A
N2020      C2021   1.357       .  A
C2021      N2022   1.353       .  A
C2021      C2180   1.459       .  S
C2023      N2024   1.361       .  A
C2023      C2295   1.470       .  S
N2026      C2027   1.358       .  A
C2027      N2028   1.352       .  A
C2027      C2252   1.459       .  S
C2029      N2030   1.359       .  A
C2029      N2034   1.355       .  A
C2029      C2179   1.459       .  S
N2030      C2031   1.360       .  A
C2031      N2032   1.360       .  A
C2031      C2323   1.474       .  S
N2032      C2033   1.358       .  A
C2033      N2034   1.355       .  A
C2035      N2036   1.361       .  A
C2035      N2040   1.353       .  A
C2035      C2213   1.469       .  S
N2036      C2037   1.364       .  A
C2037      N2038   1.364       .  A
C2037      C2329   1.479   1_554  S
N2038      C2039   1.361       .  A
C2039      N2040   1.353       .  A
C2041      N2042   1.356       .  A
C2041      N2046   1.362       .  A
C2041      C2143   1.470       .  S
N2042      C2043   1.352       .  A
C2043      N2044   1.358       .  A
C2043      C2060   1.460       .  S
N2044      C2045   1.362       .  A
C2045      N2046   1.363       .  A
C2045      C2150   1.476       .  S
C2047      N2048   1.356       .  A
C2047      N2052   1.361       .  A
C2047      C2271   1.470       .  S
N2048      C2049   1.353       .  A
C2049      N2050   1.358       .  A
C2049      C2290   1.458       .  S
N2050      C2051   1.361       .  A
C2051      N2052   1.362       .  A
C2051      C2224   1.474       .  S
C2053      N2054   1.359       .  A
C2053      N2058   1.355       .  A
C2053      C2275   1.460       .  S
N2054      C2055   1.361       .  A
C2055      N2056   1.362       .  A
C2055      C2119   1.476       .  S
N2056      C2057   1.359       .  A
C2057      N2058   1.355       .  A
C2057      C2075   1.461       .  S
O2059      C2075   1.272       .  A
O2059     Zn2065   2.008       .  S
C2060      O2076   1.272       .  A
C2060      O2073   1.274       .  A
O2061      C2074   1.274       .  A
O2061     Cd2068   2.081       .  S
O2062      C2080   1.275       .  A
O2062     Cd2071   2.060       .  S
O2063      C2077   1.276       .  A
O2063     Cd2067   2.064       .  S
O2064      C2075   1.274       .  A
O2064     Cd2067   2.082       .  S
Zn2065     O2076   2.010       .  S
Zn2065     O2078   2.007       .  S
Zn2065     O2070   1.931       .  S
O2066      C2077   1.274       .  A
O2066     Cd2071   2.079       .  S
Cd2067     O2069   2.079       .  S
Cd2067     O2070   2.005       .  S
Cd2068     O2072   2.064       .  S
Cd2068     O2081   2.078       .  S
Cd2068     O2070   2.007       .  S
O2069      C2079   1.275       .  A
O2070     Cd2071   2.007       .  S
Cd2071     O2073   2.079       .  S
O2072      C2079   1.275       .  A
C2074      C2088   1.460       .  S
C2074      O2078   1.272       .  A
C2080      O2081   1.274       .  A
C2082      N2083   1.359       .  A
C2082      N2087   1.355       .  A
C2082      C2095   1.459       .  S
N2083      C2084   1.361       .  A
C2084      N2085   1.361       .  A
C2084      C2160   1.475       .  S
N2085      C2086   1.359       .  A
C2086      N2087   1.355       .  A
C2086      C2208   1.461       .  S
C2088      N2089   1.359       .  A
C2088      N2093   1.355       .  A
N2089      C2090   1.361       .  A
C2090      N2091   1.360       .  A
C2090      C2191   1.474       .  S
N2091      C2092   1.358       .  A
C2092      N2093   1.355       .  A
C2092      C2109   1.459       .  S
O2094      C2110   1.272       .  A
O2094     Zn2100   2.007       .  S
C2095      O2111   1.272       .  A
C2095      O2108   1.274       .  A
O2096      C2109   1.274       .  A
O2096     Cd2103   2.080       .  S
O2097      C2115   1.275       .  A
O2097     Cd2106   2.079       .  S
O2098      C2112   1.274       .  A
O2098     Cd2102   2.080       .  S
O2099      C2110   1.274       .  A
O2099     Cd2102   2.080       .  S
Zn2100     O2111   2.006       .  S
Zn2100     O2113   2.007       .  S
Zn2100     O2105   1.931       .  S
O2101      C2112   1.276       .  A
O2101     Cd2106   2.065       .  S
Cd2102     O2104   2.061       .  S
Cd2102     O2105   2.006       .  S
Cd2103     O2107   2.079       .  S
Cd2103     O2116   2.065       .  S
Cd2103     O2105   2.007       .  S
O2104      C2114   1.275       .  A
O2105     Cd2106   2.004       .  S
Cd2106     O2108   2.080       .  S
O2107      C2114   1.274       .  A
C2109      O2113   1.272       .  A
C2110      C2148   1.460       .  S
C2115      O2116   1.275       .  A
C2117      N2118   1.360       .  A
C2117      N2122   1.354       .  A
C2117      C2144   1.469       .  S
N2118      C2119   1.363       .  A
C2119      N2120   1.364       .  A
N2120      C2121   1.361       .  A
C2121      N2122   1.353       .  A
C2121      C2269   1.470       .  S
O2123      C2139   1.272       .  A
O2123     Zn2129   2.011       .  S
C2124      O2140   1.272       .  A
C2124      O2137   1.274       .  A
O2125      C2138   1.274       .  A
O2125     Cd2132   2.080       .  S
O2126      C2144   1.275       .  A
O2126     Cd2135   2.061       .  S
O2127      C2141   1.276       .  A
O2127     Cd2131   2.064       .  S
O2128      C2139   1.274       .  A
O2128     Cd2131   2.079       .  S
Zn2129     O2140   2.009       .  S
Zn2129     O2142   2.007       .  S
Zn2129     O2134   1.931       .  S
O2130      C2141   1.274       .  A
O2130     Cd2135   2.079       .  S
Cd2131     O2133   2.079       .  S
Cd2131     O2134   2.006       .  S
Cd2132     O2136   2.065       .  S
Cd2132     O2145   2.080       .  S
Cd2132     O2134   2.007       .  S
O2133      C2143   1.275       .  A
O2134     Cd2135   2.007       .  S
Cd2135     O2137   2.080       .  S
O2136      C2143   1.275       .  A
C2138      O2142   1.272       .  A
C2141      C2152   1.470       .  S
C2144      O2145   1.275       .  A
C2146      N2147   1.356       .  A
C2146      N2151   1.362       .  A
C2146      C2185   1.470       .  S
N2147      C2148   1.352       .  A
C2148      N2149   1.357       .  A
N2149      C2150   1.362       .  A
C2150      N2151   1.363       .  A
C2152      N2153   1.361       .  A
C2152      N2157   1.353       .  A
N2153      C2154   1.364       .  A
C2154      N2155   1.364       .  A
C2154      C2218   1.478       .  S
N2155      C2156   1.360       .  A
C2156      N2157   1.353       .  A
C2156      C2182   1.470       .  S
C2158      N2159   1.361       .  A
C2158      N2163   1.356       .  A
C2158      C2184   1.470       .  S
N2159      C2160   1.363       .  A
C2160      N2161   1.361       .  A
N2161      C2162   1.358       .  A
C2162      N2163   1.353       .  A
C2162      C2244   1.458       .  S
O2164      C2180   1.271       .  A
O2164     Zn2170   2.004       .  S
C2165      O2181   1.271       .  A
C2165      O2178   1.274       .  A
O2166      C2179   1.274       .  A
O2166     Cd2173   2.081       .  S
O2167      C2185   1.275       .  A
O2167     Cd2176   2.079       .  S
O2168      C2182   1.275       .  A
O2168     Cd2172   2.080       .  S
O2169      C2180   1.274       .  A
O2169     Cd2172   2.080       .  S
Zn2170     O2181   2.003       .  S
Zn2170     O2183   2.003       .  S
Zn2170     O2175   1.930       .  S
O2171      C2182   1.275       .  A
O2171     Cd2176   2.063       .  S
Cd2172     O2174   2.065       .  S
Cd2172     O2175   2.007       .  S
Cd2173     O2177   2.079       .  S
Cd2173     O2186   2.065       .  S
Cd2173     O2175   2.005       .  S
O2174      C2184   1.275       .  A
O2175     Cd2176   2.006       .  S
Cd2176     O2178   2.080       .  S
O2177      C2184   1.275       .  A
C2179      O2183   1.271       .  A
C2185      O2186   1.275       .  A
C2187      N2188   1.355       .  A
C2187      N2192   1.358       .  A
C2187      C2289   1.459       .  S
N2188      C2189   1.355       .  A
C2189      N2190   1.359       .  A
C2189      C2194   1.461       .  S
N2190      C2191   1.361       .  A
C2191      N2192   1.360       .  A
O2193      C2209   1.272       .  A
O2193     Zn2199   2.009       .  S
C2194      O2210   1.272       .  A
C2194      O2207   1.274       .  A
O2195      C2208   1.274       .  A
O2195     Cd2202   2.082       .  S
O2196      C2214   1.275       .  A
O2196     Cd2205   2.063       .  S
O2197      C2211   1.275       .  A
O2197     Cd2201   2.062       .  S
O2198      C2209   1.274       .  A
O2198     Cd2201   2.081       .  S
Zn2199     O2210   2.009       .  S
Zn2199     O2212   2.007       .  S
Zn2199     O2204   1.930       .  S
O2200      C2211   1.274       .  A
O2200     Cd2205   2.076       .  S
Cd2201     O2203   2.078       .  S
Cd2201     O2204   2.007       .  S
Cd2202     O2206   2.064       .  S
Cd2202     O2215   2.077       .  S
Cd2202     O2204   2.006       .  S
O2203      C2213   1.274       .  A
O2204     Cd2205   2.006       .  S
Cd2205     O2207   2.081       .  S
O2206      C2213   1.276       .  A
C2208      O2212   1.272       .  A
C2209      C2226   1.461       .  S
C2214      O2215   1.274       .  A
C2216      N2217   1.362       .  A
C2216      N2221   1.355       .  A
C2216      C2272   1.471       .  S
N2217      C2218   1.363       .  A
C2218      N2219   1.363       .  A
N2219      C2220   1.359       .  A
C2220      N2221   1.352       .  A
C2220      C2229   1.460       .  S
C2222      N2223   1.359       .  A
C2222      N2227   1.355       .  A
C2222      C2243   1.459       .  S
N2223      C2224   1.360       .  A
C2224      N2225   1.361       .  A
N2225      C2226   1.359       .  A
C2226      N2227   1.355       .  A
O2228      C2244   1.271       .  A
O2228     Zn2234   2.002       .  S
C2229      O2245   1.271       .  A
C2229      O2242   1.274       .  A
O2230      C2243   1.274       .  A
O2230     Cd2237   2.081       .  S
O2231      C2249   1.275       .  A
O2231     Cd2240   2.081       .  S
O2232      C2246   1.275       .  A
O2232     Cd2236   2.079       .  S
O2233      C2244   1.274       .  A
O2233     Cd2236   2.079       .  S
Zn2234     O2245   2.005       .  S
Zn2234     O2247   2.004       .  S
Zn2234     O2239   1.930       .  S
O2235      C2246   1.275       .  A
O2235     Cd2240   2.062       .  S
Cd2236     O2238   2.064       .  S
Cd2236     O2239   2.007       .  S
Cd2237     O2241   2.080       .  S
Cd2237     O2250   2.066       .  S
Cd2237     O2239   2.005       .  S
O2238      C2248   1.275       .  A
O2239     Cd2240   2.005       .  S
Cd2240     O2242   2.083       .  S
O2241      C2248   1.275       .  A
C2243      O2247   1.271       .  A
C2249      O2250   1.276       .  A
O2251      C2267   1.271       .  A
O2251     Zn2257   2.001       .  S
C2252      O2268   1.271       .  A
C2252      O2265   1.274       .  A
O2253      C2266   1.274       .  A
O2253     Cd2260   2.084       .  S
O2254      C2272   1.275       .  A
O2254     Cd2263   2.081       .  S
O2255      C2269   1.275       .  A
O2255     Cd2259   2.081       .  S
O2256      C2267   1.274       .  A
O2256     Cd2259   2.080       .  S
Zn2257     O2268   2.002       .  S
Zn2257     O2270   2.001       .  S
Zn2257     O2262   1.930       .  S
O2258      C2269   1.275       .  A
O2258     Cd2263   2.064       .  S
Cd2259     O2261   2.065       .  S
Cd2259     O2262   2.007       .  S
Cd2260     O2264   2.079       .  S
Cd2260     O2273   2.066       .  S
Cd2260     O2262   2.006       .  S
O2261      C2271   1.275       .  A
O2262     Cd2263   2.006       .  S
Cd2263     O2265   2.081       .  S
O2264      C2271   1.275       .  A
C2266      O2270   1.271       .  A
C2272      O2273   1.276       .  A
O2274      C2290   1.271       .  A
O2274     Zn2280   2.003       .  S
C2275      O2291   1.272       .  A
C2275      O2288   1.274       .  A
O2276      C2289   1.274       .  A
O2276     Cd2283   2.080       .  S
O2277      C2295   1.275       .  A
O2277     Cd2286   2.080       .  S
O2278      C2292   1.274       .  A
O2278     Cd2282   2.078       .  S
O2279      C2290   1.274       .  A
O2279     Cd2282   2.080       .  S
Zn2280     O2291   2.006       .  S
Zn2280     O2293   2.004       .  S
Zn2280     O2285   1.929       .  S
O2281      C2292   1.276       .  A
O2281     Cd2286   2.064       .  S
Cd2282     O2284   2.062       .  S
Cd2282     O2285   2.006       .  S
Cd2283     O2287   2.077       .  S
Cd2283     O2296   2.065       .  S
Cd2283     O2285   2.006       .  S
O2284      C2294   1.275       .  A
O2285     Cd2286   2.005       .  S
Cd2286     O2288   2.082       .  S
O2287      C2294   1.274       .  A
C2289      O2293   1.271       .  A
C2295      O2296   1.275       .  A
C2297      N2302   1.359       .  A
C2297      C2594   1.460       .  S
N2298      C2299   1.355   1_554  A
C2299      N2300   1.359       .  A
C2299      C2467   1.460       .  S
C2301      N2302   1.361       .  A
C2303      N2304   1.360       .  A
C2303      N2308   1.353       .  A
C2303      C2539   1.468       .  S
N2304      C2305   1.363       .  A
N2306      C2307   1.360       .  A
C2307      C2442   1.469       .  S
C2309      N2314   1.360       .  A
C2309      C2542   1.469       .  S
N2310      C2311   1.353       .  A
C2311      N2312   1.360       .  A
C2311      C2574   1.469       .  S
N2312      C2313   1.364       .  A
C2313      C2353   1.477       .  S
C2315      N2316   1.361       .  A
C2315      C2407   1.470       .  S
C2317      C2347   1.476       .  S
N2318      C2319   1.358       .  A
C2319      N2320   1.352       .  A
C2319      C2452   1.460       .  S
C2321      N2322   1.361       .  A
C2321      N2326   1.356       .  A
C2321      C2576   1.470       .  S
N2322      C2323   1.362       .  A
C2323      N2324   1.361       .  A
N2324      C2325   1.357       .  A
C2325      N2326   1.353       .  A
C2327      N2328   1.361       .  A
C2327      N2332   1.353       .  A
C2327      C2440   1.470       .  S
N2328      C2329   1.365       .  A
C2329      N2330   1.364       .  A
N2330      C2331   1.361       .  A
C2331      N2332   1.353       .  A
C2333      N2334   1.362       .  A
C2333      C2577   1.471       .  S
C2335      N2336   1.362   1_554  A
N2336      C2337   1.358       .  A
C2337      N2338   1.352       .  A
C2337      C2493   1.459       .  S
C2339      N2344   1.360       .  A
C2339      C2408   1.468       .  S
N2340      C2341   1.353       .  A
C2341      N2342   1.360       .  A
C2341      C2622   1.468       .  S
N2342      C2343   1.363       .  A
C2345      N2346   1.362       .  A
C2345      C2443   1.470       .  S
C2347      N2348   1.361       .  A
N2348      C2349   1.357       .  A
C2349      N2350   1.353       .  A
C2349      C2508   1.459       .  S
C2351      N2352   1.361       .  A
C2351      C2623   1.470       .  S
N2354      C2355   1.358       .  A
C2355      N2356   1.352       .  A
C2355      C2580   1.459       .  S
C2357      N2358   1.359       .  A
C2357      N2362   1.355       .  A
C2357      C2507   1.459       .  S
N2358      C2359   1.360       .  A
C2359      N2360   1.360       .  A
N2360      C2361   1.358       .  A
C2361      N2362   1.355       .  A
C2363      N2364   1.361       .  A
C2363      N2368   1.353       .  A
C2363      C2541   1.469       .  S
N2364      C2365   1.364       .  A
C2365      N2366   1.364       .  A
N2366      C2367   1.361       .  A
C2367      N2368   1.353       .  A
C2369      N2370   1.356       .  A
C2369      N2374   1.362       .  A
C2369      C2471   1.470       .  S
N2370      C2371   1.352       .  A
C2371      N2372   1.358       .  A
C2371      C2388   1.460       .  S
N2372      C2373   1.362       .  A
C2373      N2374   1.363       .  A
C2373      C2478   1.476       .  S
C2375      N2376   1.356       .  A
C2375      N2380   1.361       .  A
C2375      C2599   1.470       .  S
N2376      C2377   1.353       .  A
C2377      N2378   1.358       .  A
C2377      C2618   1.458       .  S
N2378      C2379   1.361       .  A
C2379      N2380   1.362       .  A
C2379      C2552   1.474       .  S
C2381      N2382   1.359       .  A
C2381      N2386   1.355       .  A
C2381      C2603   1.460       .  S
N2382      C2383   1.361       .  A
C2383      N2384   1.362       .  A
C2383      C2447   1.476       .  S
N2384      C2385   1.359       .  A
C2385      N2386   1.355       .  A
C2385      C2403   1.461       .  S
O2387      C2403   1.272       .  A
O2387     Zn2393   2.008       .  S
C2388      O2404   1.272       .  A
C2388      O2401   1.274       .  A
O2389      C2402   1.274       .  A
O2389     Cd2396   2.081       .  S
O2390      C2408   1.275       .  A
O2390     Cd2399   2.060       .  S
O2391      C2405   1.276       .  A
O2391     Cd2395   2.064       .  S
O2392      C2403   1.274       .  A
O2392     Cd2395   2.082       .  S
Zn2393     O2404   2.010       .  S
Zn2393     O2406   2.007       .  S
Zn2393     O2398   1.931       .  S
O2394      C2405   1.274       .  A
O2394     Cd2399   2.079       .  S
Cd2395     O2397   2.079       .  S
Cd2395     O2398   2.005       .  S
Cd2396     O2400   2.064       .  S
Cd2396     O2409   2.078       .  S
Cd2396     O2398   2.007       .  S
O2397      C2407   1.275       .  A
O2398     Cd2399   2.007       .  S
Cd2399     O2401   2.079       .  S
O2400      C2407   1.275       .  A
C2402      C2416   1.460       .  S
C2402      O2406   1.272       .  A
C2408      O2409   1.274       .  A
C2410      N2411   1.359       .  A
C2410      N2415   1.355       .  A
C2410      C2423   1.459       .  S
N2411      C2412   1.361       .  A
C2412      N2413   1.361       .  A
C2412      C2488   1.475       .  S
N2413      C2414   1.359       .  A
C2414      N2415   1.355       .  A
C2414      C2536   1.461       .  S
C2416      N2417   1.359       .  A
C2416      N2421   1.355       .  A
N2417      C2418   1.361       .  A
C2418      N2419   1.360       .  A
C2418      C2519   1.474       .  S
N2419      C2420   1.359       .  A
C2420      N2421   1.355       .  A
C2420      C2437   1.459       .  S
O2422      C2438   1.272       .  A
O2422     Zn2428   2.007       .  S
C2423      O2439   1.272       .  A
C2423      O2436   1.274       .  A
O2424      C2437   1.274       .  A
O2424     Cd2431   2.080       .  S
O2425      C2443   1.275       .  A
O2425     Cd2434   2.079       .  S
O2426      C2440   1.274       .  A
O2426     Cd2430   2.080       .  S
O2427      C2438   1.274       .  A
O2427     Cd2430   2.080       .  S
Zn2428     O2439   2.006       .  S
Zn2428     O2441   2.007       .  S
Zn2428     O2433   1.931       .  S
O2429      C2440   1.276       .  A
O2429     Cd2434   2.065       .  S
Cd2430     O2432   2.061       .  S
Cd2430     O2433   2.006       .  S
Cd2431     O2435   2.079       .  S
Cd2431     O2444   2.065       .  S
Cd2431     O2433   2.007       .  S
O2432      C2442   1.275       .  A
O2433     Cd2434   2.004       .  S
Cd2434     O2436   2.080       .  S
O2435      C2442   1.274       .  A
C2437      O2441   1.272       .  A
C2438      C2476   1.460       .  S
C2443      O2444   1.275       .  A
C2445      N2446   1.360       .  A
C2445      N2450   1.354       .  A
C2445      C2472   1.469       .  S
N2446      C2447   1.363       .  A
C2447      N2448   1.364       .  A
N2448      C2449   1.361       .  A
C2449      N2450   1.353       .  A
C2449      C2597   1.470       .  S
O2451      C2467   1.272       .  A
O2451     Zn2457   2.011       .  S
C2452      O2468   1.272       .  A
C2452      O2465   1.274       .  A
O2453      C2466   1.274       .  A
O2453     Cd2460   2.080       .  S
O2454      C2472   1.275       .  A
O2454     Cd2463   2.061       .  S
O2455      C2469   1.276       .  A
O2455     Cd2459   2.064       .  S
O2456      C2467   1.274       .  A
O2456     Cd2459   2.079       .  S
Zn2457     O2468   2.009       .  S
Zn2457     O2470   2.007       .  S
Zn2457     O2462   1.931       .  S
O2458      C2469   1.274       .  A
O2458     Cd2463   2.079       .  S
Cd2459     O2461   2.079       .  S
Cd2459     O2462   2.006       .  S
Cd2460     O2464   2.065       .  S
Cd2460     O2473   2.080       .  S
Cd2460     O2462   2.007       .  S
O2461      C2471   1.275       .  A
O2462     Cd2463   2.007       .  S
Cd2463     O2465   2.080       .  S
O2464      C2471   1.275       .  A
C2466      O2470   1.272       .  A
C2469      C2480   1.470       .  S
C2472      O2473   1.275       .  A
C2474      N2475   1.356       .  A
C2474      N2479   1.362       .  A
C2474      C2513   1.470       .  S
N2475      C2476   1.352       .  A
C2476      N2477   1.357       .  A
N2477      C2478   1.362       .  A
C2478      N2479   1.363       .  A
C2480      N2481   1.361       .  A
C2480      N2485   1.353       .  A
N2481      C2482   1.364       .  A
C2482      N2483   1.364       .  A
C2482      C2546   1.478       .  S
N2483      C2484   1.360       .  A
C2484      N2485   1.353       .  A
C2484      C2510   1.470       .  S
C2486      N2487   1.361       .  A
C2486      N2491   1.356       .  A
C2486      C2512   1.470       .  S
N2487      C2488   1.363       .  A
C2488      N2489   1.361       .  A
N2489      C2490   1.358       .  A
C2490      N2491   1.353       .  A
C2490      C2572   1.458       .  S
O2492      C2508   1.271       .  A
O2492     Zn2498   2.004       .  S
C2493      O2509   1.271       .  A
C2493      O2506   1.274       .  A
O2494      C2507   1.274       .  A
O2494     Cd2501   2.081       .  S
O2495      C2513   1.275       .  A
O2495     Cd2504   2.079       .  S
O2496      C2510   1.275       .  A
O2496     Cd2500   2.080       .  S
O2497      C2508   1.274       .  A
O2497     Cd2500   2.080       .  S
Zn2498     O2509   2.003       .  S
Zn2498     O2511   2.004       .  S
Zn2498     O2503   1.930       .  S
O2499      C2510   1.275       .  A
O2499     Cd2504   2.063       .  S
Cd2500     O2502   2.065       .  S
Cd2500     O2503   2.007       .  S
Cd2501     O2505   2.079       .  S
Cd2501     O2514   2.065       .  S
Cd2501     O2503   2.005       .  S
O2502      C2512   1.275       .  A
O2503     Cd2504   2.006       .  S
Cd2504     O2506   2.081       .  S
O2505      C2512   1.275       .  A
C2507      O2511   1.271       .  A
C2513      O2514   1.275       .  A
C2515      N2516   1.355       .  A
C2515      N2520   1.358       .  A
C2515      C2617   1.459       .  S
N2516      C2517   1.355       .  A
C2517      N2518   1.359       .  A
C2517      C2522   1.461       .  S
N2518      C2519   1.361       .  A
C2519      N2520   1.360       .  A
O2521      C2537   1.272       .  A
O2521     Zn2527   2.009       .  S
C2522      O2538   1.272       .  A
C2522      O2535   1.274       .  A
O2523      C2536   1.274       .  A
O2523     Cd2530   2.082       .  S
O2524      C2542   1.275       .  A
O2524     Cd2533   2.063       .  S
O2525      C2539   1.275       .  A
O2525     Cd2529   2.062       .  S
O2526      C2537   1.274       .  A
O2526     Cd2529   2.081       .  S
Zn2527     O2538   2.009       .  S
Zn2527     O2540   2.007       .  S
Zn2527     O2532   1.930       .  S
O2528      C2539   1.274       .  A
O2528     Cd2533   2.076       .  S
Cd2529     O2531   2.078       .  S
Cd2529     O2532   2.007       .  S
Cd2530     O2534   2.064       .  S
Cd2530     O2543   2.077       .  S
Cd2530     O2532   2.006       .  S
O2531      C2541   1.274       .  A
O2532     Cd2533   2.006       .  S
Cd2533     O2535   2.081       .  S
O2534      C2541   1.276       .  A
C2536      O2540   1.272       .  A
C2537      C2554   1.461       .  S
C2542      O2543   1.274       .  A
C2544      N2545   1.362       .  A
C2544      N2549   1.355       .  A
C2544      C2600   1.471       .  S
N2545      C2546   1.364       .  A
C2546      N2547   1.362       .  A
N2547      C2548   1.359       .  A
C2548      N2549   1.352       .  A
C2548      C2557   1.460       .  S
C2550      N2551   1.359       .  A
C2550      N2555   1.355       .  A
C2550      C2571   1.459       .  S
N2551      C2552   1.360       .  A
C2552      N2553   1.361       .  A
N2553      C2554   1.359       .  A
C2554      N2555   1.355       .  A
O2556      C2572   1.271       .  A
O2556     Zn2562   2.002       .  S
C2557      O2573   1.271       .  A
C2557      O2570   1.274       .  A
O2558      C2571   1.274       .  A
O2558     Cd2565   2.081       .  S
O2559      C2577   1.275       .  A
O2559     Cd2568   2.081       .  S
O2560      C2574   1.275       .  A
O2560     Cd2564   2.079       .  S
O2561      C2572   1.274       .  A
O2561     Cd2564   2.079       .  S
Zn2562     O2573   2.005       .  S
Zn2562     O2575   2.004       .  S
Zn2562     O2567   1.930       .  S
O2563      C2574   1.275       .  A
O2563     Cd2568   2.062       .  S
Cd2564     O2566   2.064       .  S
Cd2564     O2567   2.007       .  S
Cd2565     O2569   2.080       .  S
Cd2565     O2578   2.066       .  S
Cd2565     O2567   2.005       .  S
O2566      C2576   1.275       .  A
O2567     Cd2568   2.005       .  S
Cd2568     O2570   2.083       .  S
O2569      C2576   1.275       .  A
C2571      O2575   1.271       .  A
C2577      O2578   1.276       .  A
O2579      C2595   1.271       .  A
O2579     Zn2585   2.001       .  S
C2580      O2596   1.271       .  A
C2580      O2593   1.274       .  A
O2581      C2594   1.274       .  A
O2581     Cd2588   2.084       .  S
O2582      C2600   1.275       .  A
O2582     Cd2591   2.081       .  S
O2583      C2597   1.275       .  A
O2583     Cd2587   2.081       .  S
O2584      C2595   1.274       .  A
O2584     Cd2587   2.080       .  S
Zn2585     O2596   2.002       .  S
Zn2585     O2598   2.001       .  S
Zn2585     O2590   1.930       .  S
O2586      C2597   1.275       .  A
O2586     Cd2591   2.064       .  S
Cd2587     O2589   2.065       .  S
Cd2587     O2590   2.007       .  S
Cd2588     O2592   2.079       .  S
Cd2588     O2601   2.066       .  S
Cd2588     O2590   2.006       .  S
O2589      C2599   1.275       .  A
O2590     Cd2591   2.006       .  S
Cd2591     O2593   2.081       .  S
O2592      C2599   1.275       .  A
C2594      O2598   1.271       .  A
C2600      O2601   1.276       .  A
O2602      C2618   1.271       .  A
O2602     Zn2608   2.003       .  S
C2603      O2619   1.272       .  A
C2603      O2616   1.274       .  A
O2604      C2617   1.274       .  A
O2604     Cd2611   2.080       .  S
O2605      C2623   1.275       .  A
O2605     Cd2614   2.080       .  S
O2606      C2620   1.274       .  A
O2606     Cd2610   2.078       .  S
O2607      C2618   1.274       .  A
O2607     Cd2610   2.080       .  S
Zn2608     O2619   2.006       .  S
Zn2608     O2621   2.004       .  S
Zn2608     O2613   1.929       .  S
O2609      C2620   1.276       .  A
O2609     Cd2614   2.064       .  S
Cd2610     O2612   2.062       .  S
Cd2610     O2613   2.006       .  S
Cd2611     O2615   2.077       .  S
Cd2611     O2624   2.065       .  S
Cd2611     O2613   2.006       .  S
O2612      C2622   1.275       .  A
O2613     Cd2614   2.005       .  S
Cd2614     O2616   2.082       .  S
O2615      C2622   1.274       .  A
C2617      O2621   1.271       .  A
C2623      O2624   1.275       .  A
