geometry optimzed in LAMMPS
_audit_creation_date              2020-11-30 
_audit_creation_method            'lammps2cif' 
_symmetry_space_group_name_H-M    'P1' 
_symmetry_Int_Tables_number       1 
_symmetry_cell_setting            triclinic 
loop_ 
_symmetry_equiv_pos_as_xyz 
  x,y,z 
_cell_length_a                    30.0809978 
_cell_length_b                    30.204721186246093 
_cell_length_c                    95.88285222231214 
_cell_angle_alpha                 89.96919125916487 
_cell_angle_beta                  90.33243471558582 
_cell_angle_gamma                 89.71863609454724 
loop_ 
_atom_site_label 
_atom_site_type_symbol 
_atom_site_fract_x 
_atom_site_fract_y 
_atom_site_fract_z 
_atom_site_charge 
N1          N  0.06486613  0.40685853  0.11249396    -0.36400
N2          N  0.12651056  0.90317682  0.09031684    -0.57000
N3          N  0.55509409  0.90752985  0.06923653    -0.36400
N4          N  0.48731654  0.91954830  0.08988664    -0.57000
C5          C  0.09999495  0.39637044  0.12067247     0.27200
C6          C  0.52835550  0.40344777  0.12046708     0.27200
C7          C  0.09004475  0.89288102  0.06170372     0.27200
C8          C  0.51798737  0.90132716  0.06140067     0.27200
C9          C  0.15900479  0.40530155  0.10333858     0.35800
C10         C  0.15105848  0.90837736  0.07870578     0.35800
C11         C  0.47166124  0.42542695  0.10295159     0.35800
C12         C  0.46237769  0.92843555  0.07847254     0.35800
C13         C  0.08566791  0.38477148  0.13387289    -0.23900
C14         C  0.54026221  0.38916356  0.13374678    -0.21700
C15         C  0.07497388  0.87662452  0.04900653    -0.21700
C16         C  0.52961948  0.88209247  0.04878830    -0.21700
C17         C  0.20077222  0.41726672  0.09873664    -0.22800
C18         C  0.19333466  0.92281540  0.08228959    -0.22800
C19         C  0.43160941  0.44385689  0.09864317    -0.22800
C20         C  0.42265427  0.94820047  0.08238738    -0.22800
C21         C  0.14420707  0.40618036  0.11729438    -0.18100
C22         C  0.48658275  0.42128523  0.11686495    -0.18100
C23         C  0.47471166  0.91664989  0.06475312    -0.18100
C24         C  0.13533587  0.90031678  0.06499867    -0.18100
H25         H  0.10608113  0.37688641  0.14288074     0.14800
H26         H  0.51882237  0.38520399  0.14268012     0.14800
H27         H  0.09486996  0.86394979  0.04051107     0.14800
H28         H  0.50803067  0.87422141  0.04008338     0.14800
H29         H  0.22840667  0.42887630  0.10499332     0.13100
H30         H  0.22053956  0.92977856  0.07529702     0.13100
H31         H  0.40610630  0.45837007  0.10514248     0.13100
H32         H  0.39555328  0.95847636  0.07563413     0.13100
H33         H  0.06655275  0.42429679  0.10316352     0.26300
H34         H  0.55742431  0.92689761  0.07814661     0.26300
O35         O  0.26466250  0.38199904  0.98322828    -0.74200
O36         O  0.35330285  0.37802212  0.01220725    -0.74300
O37         O  0.26463558  0.37415407  0.01176849    -0.74300
O38         O  0.35349956  0.38532673  0.98368326    -0.74400
O39         O  0.34395039  0.96293423  0.98298827    -0.74300
O40         O  0.25494773  0.95383318  0.01119813    -0.74300
O41         O  0.34389920  0.95746395  0.01159597    -0.74300
O42         O  0.25542747  0.95989335  0.98262493    -0.74300
Ni43       Ni  0.30915372  0.37726748  0.99765411     1.25400
Ni44       Ni  0.29944883  0.96112641  0.99716511     1.25400
C45         C  0.24346025  0.92375775  0.97673083     0.87900
C46         C  0.35862478  0.92017542  0.01610248     0.87900
C47         C  0.24343730  0.91550161  0.01559625     0.87900
C48         C  0.35822004  0.92772504  0.97703443     0.88100
N49         N  0.38922539  0.49077807  0.19126139    -0.36400
N50         N  0.32223809  0.47929934  0.21296207    -0.57000
N51         N  0.25500647  0.47085499  0.19089550    -0.36400
N52         N  0.31969216  0.48531539  0.17047977    -0.57000
C53         C  0.41420158  0.48012348  0.20253658     0.27200
C54         C  0.41182643  0.47723573  0.17981969     0.27200
C55         C  0.23558242  0.45398712  0.20233980     0.27200
C56         C  0.23558594  0.45184853  0.17960475     0.27200
C57         C  0.35749408  0.49351831  0.22074481     0.35800
C58         C  0.28425180  0.48597071  0.22042661     0.35800
C59         C  0.35422339  0.49682056  0.16252721     0.35800
C60         C  0.28359139  0.48605474  0.16217840     0.35800
C61         C  0.45339581  0.45999174  0.19821231    -0.21700
C62         C  0.45170163  0.45786727  0.18385135    -0.21700
C63         C  0.20382769  0.42320149  0.19833030    -0.21700
C64         C  0.20378581  0.42193938  0.18392398    -0.21700
C65         C  0.34183825  0.50922840  0.23338263    -0.22800
C66         C  0.29572834  0.50516637  0.23310832    -0.22800
C67         C  0.33964847  0.50769982  0.14918786    -0.22800
C68         C  0.29461838  0.50080463  0.14896506    -0.22800
C69         C  0.40332683  0.49056210  0.21651970    -0.18100
C70         C  0.39752780  0.48330941  0.16587337    -0.18100
C71         C  0.24470764  0.46332927  0.16561497    -0.18100
C72         C  0.24049732  0.47233050  0.21583620    -0.18100
H73         H  0.48030515  0.44785353  0.20473663     0.14800
H74         H  0.47707460  0.44409346  0.17714768     0.14800
H75         H  0.18158323  0.40518462  0.20508392     0.14800
H76         H  0.18205367  0.40229187  0.17739376     0.14800
H77         H  0.36150255  0.52267160  0.24185145     0.13100
H78         H  0.27354293  0.51517311  0.24137073     0.13100
H79         H  0.35992909  0.51510280  0.14020206     0.13100
H80         H  0.27341001  0.50231245  0.13982033     0.13100
H81         H  0.36008170  0.50961253  0.19140613     0.26300
H82         H  0.27577418  0.49842207  0.19091330     0.26300
N83         N  0.54823008  0.93779318  0.92369266    -0.36400
N84         N  0.12360165  0.44427217  0.90550024    -0.57000
N85         N  0.55295518  0.44297169  0.88493144    -0.36400
N86         N  0.48418080  0.43884558  0.90518778    -0.57000
C87         C  0.08424174  0.94707320  0.93168369     0.27200
C88         C  0.51183013  0.94606060  0.93150444     0.27200
C89         C  0.08815856  0.45582028  0.87735585     0.27200
C90         C  0.51646187  0.45124156  0.87712319     0.27200
C91         C  0.14922031  0.43311956  0.91655280     0.35800
C92         C  0.14773006  0.43565288  0.89399460     0.35800
C93         C  0.46001337  0.42811949  0.91646483     0.35800
C94         C  0.45981782  0.42762892  0.89386155     0.35800
C95         C  0.07059349  0.96178212  0.94466942    -0.21700
C96         C  0.52494878  0.96117949  0.94456199    -0.21700
C97         C  0.07385561  0.47373618  0.86476894    -0.21700
C98         C  0.52838436  0.47084661  0.86462821    -0.21700
C99         C  0.19056068  0.41863132  0.91209211    -0.22800
C100        C  0.18951739  0.42001150  0.89770305    -0.22800
C101        C  0.41919755  0.41126756  0.91232402    -0.22800
C102        C  0.41925870  0.41055551  0.89791669    -0.22800
C103        C  0.12891613  0.93810160  0.92807245    -0.18100
C104        C  0.46757978  0.93516720  0.92780012    -0.18100
C105        C  0.47406975  0.43451595  0.88004058    -0.18100
C106        C  0.13217836  0.44320843  0.88030920    -0.18100
H107        H  0.09140437  0.97078428  0.95345777     0.14800
H108        H  0.50390433  0.96942956  0.95331009     0.14800
H109        H  0.09423693  0.48503756  0.85622151     0.14800
H110        H  0.50672781  0.47970145  0.85600044     0.14800
H111        H  0.21197772  0.90858741  0.91627803     0.13100
H112        H  0.21628710  0.41069169  0.89078793     0.13100
H113        H  0.38604099  0.89945219  0.91657013     0.13100
H114        H  0.39255534  0.39918934  0.89122851     0.13100
H115        H  0.54859935  0.92060564  0.91432854     0.26300
H116        H  0.55435802  0.42174634  0.89346167     0.26300
N117        N  0.37037483  0.40484962  0.80367576    -0.36400
N118        N  0.30204775  0.42969899  0.78263534    -0.57000
N119        N  0.23564227  0.42133538  0.80423037    -0.36400
N120        N  0.30221037  0.39423208  0.82369029    -0.57000
C121        C  0.39382951  0.42391669  0.79336819     0.27200
C122        C  0.39304770  0.41138938  0.81577515     0.27200
C123        C  0.21601028  0.44631455  0.79425515     0.27200
C124        C  0.21747600  0.43315493  0.81657627     0.27200
C125        C  0.33746124  0.41904548  0.77449371     0.35800
C126        C  0.26422951  0.42653243  0.77474670     0.35800
C127        C  0.33700896  0.37903313  0.83110408     0.35800
C128        C  0.26605017  0.38773980  0.83151479     0.35800
C129        C  0.43219482  0.44255891  0.79891904    -0.21700
C130        C  0.43151900  0.43485688  0.81311565    -0.21700
C131        C  0.18577162  0.47515820  0.80036551    -0.21700
C132        C  0.18636626  0.46647565  0.81447742    -0.21700
C133        C  0.32209950  0.40874528  0.76123675    -0.22800
C134        C  0.27592136  0.41246766  0.76147735    -0.22800
C135        C  0.32266416  0.35958731  0.84336949    -0.22800
C136        C  0.27743768  0.36526742  0.84366658    -0.22800
C137        C  0.38312845  0.42071606  0.77901072    -0.18100
C138        C  0.37979426  0.39551980  0.82899359    -0.18100
C139        C  0.22721141  0.41269871  0.82948481    -0.18100
C140        C  0.22059630  0.43851823  0.77976832    -0.18100
H141        H  0.45814780  0.45952387  0.79329233     0.14800
H142        H  0.45670399  0.44479262  0.82057393     0.14800
H143        H  0.16435361  0.49881780  0.79510526     0.14800
H144        H  0.16584916  0.48240196  0.82225314     0.14800
H145        H  0.34200229  0.39888261  0.75238979     0.13100
H146        H  0.25376705  0.40525103  0.75287089     0.13100
H147        H  0.34308628  0.34738934  0.85189128     0.13100
H148        H  0.25638497  0.35795716  0.85247253     0.13100
H149        H  0.34255298  0.38491955  0.80217213     0.26300
H150        H  0.25624588  0.39407840  0.80241644     0.26300
N151        N  0.02020559  0.13986757  0.68955472    -0.36400
N152        N  0.01145552  0.20911653  0.66817024    -0.57000
N153        N  0.03750822  0.27330288  0.68836436    -0.36400
N154        N  0.54485019  0.20402828  0.71039784    -0.57000
C155        C  0.99898824  0.11769992  0.67918453     0.27200
C156        C  0.01640410  0.11514893  0.70131503     0.27200
C157        C  0.03950570  0.29864099  0.67664082     0.27200
C158        C  0.05652079  0.29671057  0.69878009     0.27200
C159        C  0.00002171  0.17428849  0.66026242     0.35800
C160        C  0.00911680  0.24462269  0.65968249     0.35800
C161        C  0.55106902  0.16705533  0.71838872     0.35800
C162        C  0.55594115  0.24011963  0.71814460     0.35800
C163        C  0.98112402  0.07898181  0.68435826    -0.21700
C164        C  0.99111925  0.07784400  0.69833576    -0.21700
C165        C  0.06000885  0.33837692  0.67964342    -0.21700
C166        C  0.07097581  0.33713265  0.69355372    -0.21700
C167        C  0.98992837  0.18780045  0.64674844    -0.22800
C168        C  0.99538338  0.23239736  0.64641716    -0.22800
C169        C  0.56798170  0.18001196  0.73122860    -0.22800
C170        C  0.56889975  0.22590770  0.73130884    -0.22800
C171        C  0.99660877  0.13049697  0.66502586    -0.18100
C172        C  0.53852368  0.12278586  0.71432657    -0.18100
C173        C  0.55767928  0.28508846  0.71316701    -0.18100
C174        C  0.02240681  0.28750877  0.66333756    -0.18100
H175        H  0.96247946  0.05421638  0.67868800     0.14800
H176        H  0.98156535  0.05179797  0.70546008     0.14800
H177        H  0.06626052  0.36552887  0.67255948     0.14800
H178        H  0.08723121  0.36345572  0.69926387     0.14800
H179        H  0.97901387  0.16785840  0.63801644     0.13100
H180        H  0.99064692  0.25315531  0.63731963     0.13100
H181        H  0.57850712  0.15906818  0.73976995     0.13100
H182        H  0.57988983  0.24615009  0.73993687     0.13100
H183        H  0.04093281  0.16697605  0.68818110     0.26300
H184        H  0.01958868  0.24436545  0.68972585     0.26300
N185        N  0.98345304  0.47493873  0.61067210    -0.36400
N186        N  0.96122049  0.54337706  0.59083992    -0.57000
N187        N  0.96383858  0.47612553  0.56953343    -0.36400
N188        N  0.98839673  0.40801339  0.58973141    -0.57000
C189        C  0.98680996  0.51187241  0.61846007     0.27200
C190        C  0.00518562  0.44251250  0.61765661     0.27200
C191        C  0.96605735  0.51337424  0.56172752     0.27200
C192        C  0.97616428  0.44206080  0.56127421     0.27200
C193        C  0.95049836  0.04808400  0.60288028     0.35800
C194        C  0.94186794  0.05311348  0.58049008     0.35800
C195        C  0.99034842  0.38177781  0.60112495     0.35800
C196        C  0.97676227  0.38202530  0.57891759     0.35800
C197        C  0.01164856  0.50317803  0.63039132    -0.21700
C198        C  0.02360331  0.45938589  0.62982309    -0.21700
C199        C  0.98028708  0.50275889  0.54838832    -0.21700
C200        C  0.98642793  0.45768228  0.54808650    -0.21700
C201        C  0.94853217  0.09288183  0.59977233    -0.22800
C202        C  0.94315824  0.09607876  0.58551577    -0.22800
C203        C  0.98078114  0.33845149  0.59752623    -0.22800
C204        C  0.97206964  0.33860065  0.58336970    -0.22800
C205        C  0.95867130  0.02988788  0.61620585    -0.18100
C206        C  0.00230091  0.39710729  0.61451968    -0.18100
C207        C  0.97436004  0.39691932  0.56498784    -0.18100
C208        C  0.93944306  0.04088487  0.56629995    -0.18100
H209        H  0.01880304  0.52552425  0.63891978     0.14800
H210        H  0.04155442  0.44140728  0.63785752     0.14800
H211        H  0.98467956  0.52500354  0.53965471     0.14800
H212        H  0.99657752  0.43847892  0.53911263     0.14800
H213        H  0.95152799  0.12028176  0.60698271     0.13100
H214        H  0.94111791  0.12640853  0.57952431     0.13100
H215        H  0.98032119  0.30990599  0.60435053     0.13100
H216        H  0.96384467  0.31006506  0.57705443     0.13100
H217        H  0.96080092  0.47053779  0.60257797     0.26300
H218        H  0.94899799  0.47308660  0.57924066     0.26300
O219        O  0.92214530  0.26534534  0.48454931    -0.74200
O220        O  0.91314245  0.17882373  0.51369969    -0.74300
O221        O  0.92140946  0.26732985  0.51304300    -0.74300
O222        O  0.91400532  0.17725236  0.48514866    -0.74400
O223        O  0.98766904  0.16983002  0.48574744    -0.74300
O224        O  0.99508762  0.26041058  0.51328160    -0.74300
O225        O  0.98675752  0.17195467  0.51422677    -0.74300
O226        O  0.99580677  0.25774863  0.48478312    -0.74300
Ni227      Ni  0.91505143  0.22243103  0.49912044     1.25400
Ni228      Ni  0.99393333  0.21474417  0.49954942     1.25400
C229        C  0.96030294  0.27444730  0.47943946     0.87900
C230        C  0.94844092  0.16182719  0.51906827     0.87900
C231        C  0.95944232  0.27793210  0.51805277     0.87900
C232        C  0.94986884  0.16011307  0.48040040     0.88100
C233        C  0.54992343  0.45180814  0.74658117    -0.02300
N234        N  0.97949489  0.46662966  0.42686397    -0.36400
N235        N  0.99885188  0.53689491  0.40704271    -0.57000
N236        N  0.00789852  0.46917122  0.38645781    -0.36400
N237        N  0.99145298  0.39880611  0.40591302    -0.57000
C238        C  0.98456474  0.50217673  0.43528841     0.27200
C239        C  0.98472554  0.43010518  0.43491668     0.27200
C240        C  0.02643863  0.50400225  0.37993674     0.27200
C241        C  0.01831433  0.43302650  0.37893115     0.27200
C242        C  0.94981421  0.06689596  0.41756354     0.35800
C243        C  0.96252349  0.07077502  0.39542108     0.35800
C244        C  0.97710060  0.37296288  0.41642268     0.35800
C245        C  0.98559047  0.37580557  0.39397550     0.35800
C246        C  0.99311520  0.48820947  0.44881576    -0.21700
C247        C  0.99358812  0.44278937  0.44856687    -0.21700
C248        C  0.05007311  0.48965094  0.36840487    -0.21700
C249        C  0.04453877  0.44479623  0.36767743    -0.21700
C250        C  0.94132892  0.11034316  0.41361948    -0.22800
C251        C  0.94906310  0.11270304  0.39946531    -0.22800
C252        C  0.96336011  0.33241873  0.41120753    -0.22800
C253        C  0.96831130  0.33442345  0.39688602    -0.22800
C254        C  0.94933653  0.05035720  0.43129678    -0.18100
C255        C  0.97755188  0.38581153  0.43060631    -0.18100
C256        C  0.99863116  0.39143429  0.38074763    -0.18100
C257        C  0.97721819  0.05845649  0.38206095    -0.18100
H258        H  0.99799853  0.50864130  0.45796332     0.14800
H259        H  0.99884122  0.42152901  0.45752267     0.14800
H260        H  0.06704034  0.50979458  0.36078059     0.14800
H261        H  0.05682833  0.42375849  0.35942105     0.14800
H262        H  0.93126244  0.13748609  0.42027618     0.13100
H263        H  0.94639212  0.14198700  0.39299943     0.13100
H264        H  0.95078896  0.30460186  0.41708289     0.13100
H265        H  0.96096882  0.30827911  0.38952088     0.13100
H266        H  0.96727320  0.46749838  0.41671591     0.26300
H267        H  0.98267169  0.47073920  0.39380493     0.26300
N268        N  0.01881312  0.16280637  0.30662194    -0.36400
N269        N  0.04587806  0.22917328  0.28599876    -0.57000
N270        N  0.01396976  0.29665625  0.30511949    -0.36400
N271        N  0.97862174  0.22934025  0.32352686    -0.57000
C272        C  0.04589836  0.13924965  0.29822026     0.27200
C273        C  0.01740559  0.14139672  0.31907554     0.27200
C274        C  0.02268606  0.32273910  0.29396390     0.27200
C275        C  0.99254778  0.32211515  0.31464125     0.27200
C276        C  0.55497480  0.19177392  0.27853136     0.35800
C277        C  0.55675902  0.26525499  0.27817385     0.35800
C278        C  0.96823068  0.19418352  0.33142482     0.35800
C279        C  0.96246422  0.26478613  0.33024266     0.35800
C280        C  0.06207183  0.10252552  0.30538538    -0.21700
C281        C  0.04422173  0.10402339  0.31858481    -0.21700
C282        C  0.00444667  0.36458955  0.29641750    -0.21700
C283        C  0.98714445  0.36452812  0.30964412    -0.21700
C284        C  0.57155213  0.20429483  0.26567544    -0.22800
C285        C  0.57433724  0.25015651  0.26566661    -0.22800
C286        C  0.94225620  0.20712115  0.34264993    -0.22800
C287        C  0.93905243  0.25207501  0.34197183    -0.22800
C288        C  0.55189449  0.14710052  0.28379758    -0.18100
C289        C  0.99046990  0.15340934  0.33054166    -0.18100
C290        C  0.97636382  0.30801111  0.32763374    -0.18100
C291        C  0.54863126  0.31106828  0.28198742    -0.18100
H292        H  0.08357685  0.07675089  0.30135860     0.14800
H293        H  0.04934975  0.07971156  0.32674284     0.14800
H294        H  0.00359606  0.39273803  0.28944594     0.14800
H295        H  0.97054899  0.39189656  0.31475471     0.14800
H296        H  0.58219811  0.18299981  0.25727528     0.13100
H297        H  0.58771814  0.26957679  0.25723674     0.13100
H298        H  0.93049606  0.18699822  0.35119530     0.13100
H299        H  0.92398207  0.27311868  0.34977163     0.13100
H300        H  0.99831715  0.18863676  0.30328986     0.26300
H301        H  0.02631590  0.26500150  0.30694384     0.26300
C302        C  0.57241921  0.47852996  0.24996720    -0.02300
C303        C  0.08248332  0.42996989  0.27256753    -0.26100
C304        C  0.57204828  0.43328123  0.25823975    -0.14200
C305        C  0.56272166  0.39263231  0.25121469     0.36400
C306        C  0.55535290  0.35319510  0.25883889    -0.25600
C307        C  0.56493813  0.35021806  0.27318161    -0.14800
C308        C  0.08384477  0.38868532  0.27953449     0.37500
N309        N  0.10434273  0.38716949  0.29312039    -0.89100
H310        H  0.09268392  0.45912656  0.27827222     0.18600
H311        H  0.54039326  0.32551823  0.25346375     0.18600
N312        N  0.55686090  0.39206302  0.23637435    -0.88100
H313        H  0.08532724  0.40630169  0.29995667     0.36000
H314        H  0.10591856  0.35489602  0.29700352     0.41100
H315        H  0.52484090  0.38066561  0.23412839     0.40700
H316        H  0.57958035  0.36938139  0.23223976     0.35600
C317        C  0.09362890  0.09783324  0.26650702    -0.26100
C318        C  0.55602228  0.10585694  0.27469436    -0.14200
C319        C  0.52328106  0.07203060  0.27502433     0.36400
C320        C  0.52991662  0.03163103  0.26799942    -0.25600
C321        C  0.57478944  0.52236982  0.25915403    -0.14800
C322        C  0.09816746  0.05908293  0.25824488     0.37500
N323        N  0.13461508  0.05795565  0.24874573    -0.89100
H324        H  0.11981130  0.12228623  0.26626365     0.18600
H325        H  0.51550870  0.50492634  0.27043521     0.18600
N326        N  0.48142284  0.07833298  0.28185209    -0.88100
H327        H  0.16414459  0.06147340  0.25443939     0.36000
H328        H  0.13160834  0.08494654  0.24196602     0.41100
H329        H  0.46711047  0.10787723  0.27828942     0.40700
H330        H  0.48608002  0.08015060  0.29261435     0.35600
C331        C  0.02479872  0.34142982  0.36205312    -0.26100
C332        C  0.99005938  0.36607300  0.36784424    -0.14200
C333        C  0.95202977  0.37584286  0.35970075     0.36400
C334        C  0.94881806  0.35993078  0.34597244    -0.25600
C335        C  0.98376433  0.33539543  0.34019559    -0.14800
C336        C  0.02222504  0.32674615  0.34824473     0.37500
N337        N  0.05837054  0.30199974  0.34241380    -0.89100
H338        H  0.05488572  0.33551277  0.36805695     0.18600
H339        H  0.91863043  0.36546671  0.33998878     0.18600
N340        N  0.91699739  0.40250895  0.36534358    -0.88100
H341        H  0.06363479  0.27389517  0.34858393     0.36000
H342        H  0.08691580  0.32155668  0.34296572     0.41100
H343        H  0.88761251  0.38421312  0.36489511     0.40700
H344        H  0.41304849  0.43033144  0.35897042     0.35600
C345        C  0.01900503  0.13548901  0.35409808    -0.26100
C346        C  0.98906895  0.12549255  0.34325070    -0.14200
C347        C  0.95212424  0.09825177  0.34600271     0.36400
C348        C  0.94648107  0.08125599  0.35942593    -0.25600
C349        C  0.97723387  0.08985931  0.37017196    -0.14800
C350        C  0.01375108  0.11785428  0.36750893     0.37500
N351        N  0.04620853  0.12866380  0.37801568    -0.89100
H352        H  0.04612627  0.15815962  0.35217959     0.18600
H353        H  0.41919026  0.05875372  0.36130813     0.18600
N354        N  0.41979788  0.08723876  0.33548446    -0.88100
H355        H  0.07663310  0.11510956  0.37491805     0.36000
H356        H  0.07976684  0.60050362  0.38723281     0.41100
H357        H  0.42827557  0.10003152  0.32575276     0.40700
H358        H  0.38963677  0.10194237  0.33833124     0.35600
C359        C  0.93291729  0.35685731  0.45038508    -0.26100
C360        C  0.97032538  0.35244279  0.44180459    -0.14200
C361        C  0.00385842  0.32202221  0.44549166     0.36400
C362        C  0.00013813  0.29733568  0.45784710    -0.25600
C363        C  0.96336038  0.30258810  0.46673046    -0.14800
C364        C  0.92923376  0.33270977  0.46287511     0.37500
N365        N  0.89168256  0.33980879  0.47182241    -0.89100
H366        H  0.90758017  0.38102448  0.44764581     0.18600
H367        H  0.02628734  0.27394432  0.46048957     0.18600
N368        N  0.04240160  0.31718771  0.43692187    -0.88100
H369        H  0.86955331  0.36271573  0.46739006     0.36000
H370        H  0.90350778  0.35405683  0.48104998     0.41100
H371        H  0.07039268  0.32443496  0.44299801     0.40700
H372        H  0.04461792  0.28404826  0.43383946     0.35600
C373        C  0.98761299  0.12602717  0.46014968    -0.26100
C374        C  0.94846937  0.13114944  0.46796339    -0.14200
C375        C  0.90876612  0.11111297  0.46320168     0.36400
C376        C  0.90921003  0.08680286  0.45072030    -0.25600
C377        C  0.94841921  0.08186655  0.44306117    -0.14800
C378        C  0.98800646  0.10142356  0.44778791     0.37500
N379        N  0.02875396  0.09461563  0.44029643    -0.89100
H380        H  0.01812601  0.14153643  0.46361986     0.18600
H381        H  0.87927283  0.07042225  0.44714007     0.18600
N382        N  0.86848013  0.11471521  0.47112394    -0.88100
H383        H  0.05526074  0.10998718  0.44543025     0.36000
H384        H  0.04429562  0.61801936  0.43219973     0.41100
H385        H  0.87369683  0.09811311  0.48056950     0.40700
H386        H  0.34240562  0.09845567  0.46606135     0.35600
C387        C  0.93019723  0.36091756  0.54646533    -0.26100
C388        C  0.97095340  0.36437677  0.55352525    -0.14200
C389        C  0.00817088  0.34018748  0.54875084     0.36400
C390        C  0.00346687  0.31290846  0.53706753    -0.25600
C391        C  0.96263040  0.30917044  0.52993507    -0.14800
C392        C  0.92563262  0.33363475  0.53474710     0.37500
N393        N  0.88351332  0.33144354  0.52773658    -0.89100
H394        H  0.90184308  0.38010557  0.54998104     0.18600
H395        H  0.03227562  0.29438115  0.53359399     0.18600
N396        N  0.05138843  0.34334166  0.55516546    -0.88100
H397        H  0.87469975  0.36343001  0.52454037     0.36000
H398        H  0.85983089  0.32067082  0.53490019     0.41100
H399        H  0.05182728  0.36575812  0.56343024     0.40700
H400        H  0.05921438  0.31228223  0.55935298     0.35600
C401        C  0.90339122  0.08631637  0.54780779    -0.26100
C402        C  0.94233058  0.07537261  0.55517266    -0.14200
C403        C  0.98335150  0.09297024  0.55066595     0.36400
C404        C  0.98422357  0.12061292  0.53888509    -0.25600
C405        C  0.94531794  0.13126299  0.53131872    -0.14800
C406        C  0.90429193  0.11374452  0.53593193     0.37500
N407        N  0.86370462  0.12303526  0.52847258    -0.89100
H408        H  0.87216626  0.07212978  0.55113296     0.18600
H409        H  0.01595852  0.13374711  0.53561647     0.18600
N410        N  0.02489224  0.08249967  0.55743235    -0.88100
H411        H  0.33654784  0.10878950  0.53350322     0.36000
H412        H  0.86597160  0.10766683  0.51873422     0.41100
H413        H  0.02075953  0.06093763  0.56581443     0.40700
H414        H  0.03758331  0.11192225  0.56155254     0.35600
C415        C  0.97363962  0.36479503  0.63624629    -0.26100
C416        C  0.00798712  0.36607667  0.62641763    -0.14200
C417        C  0.04906368  0.34517119  0.62952808     0.36400
C418        C  0.05426699  0.32295453  0.64230148    -0.25600
C419        C  0.01963087  0.32128698  0.65205833    -0.14800
C420        C  0.97897670  0.34313411  0.64904762     0.37500
N421        N  0.44224199  0.34297621  0.65852090    -0.89100
H422        H  0.44272643  0.38186917  0.63405642     0.18600
H423        H  0.08504225  0.30533811  0.64443141     0.18600
N424        N  0.08619673  0.34630374  0.62015929    -0.88100
H425        H  0.43555730  0.37588610  0.66119966     0.36000
H426        H  0.45021218  0.32681151  0.66783178     0.41100
H427        H  0.07855654  0.36359866  0.61101977     0.40700
H428        H  0.09307847  0.31372390  0.61717574     0.35600
C429        C  0.94439214  0.08614934  0.65096950    -0.26100
C430        C  0.98851289  0.09721787  0.65404938    -0.14200
C431        C  0.02235406  0.08802660  0.64422456     0.36400
C432        C  0.01091072  0.06967573  0.63136705    -0.25600
C433        C  0.96677947  0.05901236  0.62824742    -0.14800
C434        C  0.93312072  0.06666303  0.63823336     0.37500
N435        N  0.38258166  0.52609983  0.63225587    -0.89100
H436        H  0.41840043  0.09482137  0.65823531     0.18600
H437        H  0.03688749  0.06199393  0.62394511     0.18600
N438        N  0.06831921  0.09827865  0.64680036    -0.88100
H439        H  0.38869695  0.49674293  0.63773107     0.36000
H440        H  0.38692987  0.51919320  0.62168130     0.41100
H441        H  0.07353960  0.10959838  0.65695923     0.40700
H442        H  0.07714217  0.12390096  0.64003395     0.35600
C443        C  0.52188735  0.35440042  0.72134036    -0.26100
C444        C  0.55745746  0.32441539  0.72294177    -0.14200
C445        C  0.09379094  0.33785976  0.73133812     0.36400
C446        C  0.09127940  0.37815775  0.73881040    -0.25600
C447        C  0.55569504  0.40922533  0.73704611    -0.14800
C448        C  0.52193210  0.39667640  0.72744134     0.37500
N449        N  0.48713191  0.42681498  0.72369673    -0.89100
H450        H  0.49465868  0.34596691  0.71438529     0.18600
H451        H  0.11848839  0.38448459  0.74587706     0.18600
N452        N  0.13475657  0.31322332  0.73200313    -0.88100
H453        H  0.45677069  0.41178300  0.72595938     0.36000
H454        H  0.48837968  0.43201970  0.71292270     0.41100
H455        H  0.13451842  0.28611529  0.72528715     0.40700
H456        H  0.13863454  0.30128770  0.74218491     0.35600
C457        C  0.53996847  0.03267541  0.74363288    -0.26100
C458        C  0.54942010  0.49741928  0.73837476    -0.14200
C459        C  0.06576083  0.50392806  0.72461584     0.36400
C460        C  0.06473140  0.04336100  0.71618154    -0.25600
C461        C  0.54784681  0.08106626  0.72312505    -0.14800
C462        C  0.53511964  0.07503858  0.73721887     0.37500
N463        N  0.51437114  0.11052901  0.74476485    -0.89100
H464        H  0.53189926  0.02925202  0.75457378     0.18600
H465        H  0.07667886  0.04687360  0.70559601     0.18600
N466        N  0.08755943  0.46889394  0.71723543    -0.88100
H467        H  0.50646269  0.10052402  0.75488654     0.36000
H468        H  0.48431004  0.11799907  0.73974551     0.41100
H469        H  0.11960519  0.47934700  0.71469488     0.40700
H470        H  0.07020111  0.46349410  0.70792135     0.35600
C471        C  0.42353219  0.45857787  0.75955574    -0.26100
C472        C  0.42159158  0.42341255  0.76891953    -0.14200
C473        C  0.45887019  0.39444284  0.76955812     0.36400
C474        C  0.49795409  0.40409113  0.76205420    -0.25600
C475        C  0.50289820  0.44306135  0.75395574    -0.14800
C476        C  0.46184973  0.46728832  0.75158307     0.37500
N477        N  0.45613409  0.49807163  0.74034569    -0.89100
H478        H  0.39452749  0.47965131  0.75825364     0.18600
H479        H  0.52564438  0.38117010  0.76292049     0.18600
N480        N  0.45787409  0.35436329  0.77755211    -0.88100
H481        H  0.44463310  0.52793022  0.74453995     0.36000
H482        H  0.43093822  0.48644845  0.73376765     0.41100
H483        H  0.43027088  0.33597321  0.77435924     0.40700
H484        H  0.45447829  0.36193685  0.78810006     0.35600
C485        C  0.13650163  0.43101091  0.77697156    -0.26100
C486        C  0.17785012  0.44239401  0.77090533    -0.14200
C487        C  0.17548547  0.46306357  0.75772960     0.36400
C488        C  0.13421149  0.46667156  0.75056406    -0.25600
C489        C  0.09249464  0.45520656  0.75662035    -0.14800
C490        C  0.09504194  0.44262310  0.77095793     0.37500
N491        N  0.05934517  0.44942988  0.78058674    -0.89100
H492        H  0.13599700  0.41701889  0.78736787     0.18600
H493        H  0.13538417  0.47877490  0.74000903     0.18600
N494        N  0.21426765  0.48226217  0.75168488    -0.88100
H495        H  0.04702700  0.41893832  0.78395478     0.36000
H496        H  0.03459111  0.47013525  0.77661222     0.41100
H497        H  0.20825372  0.51612388  0.75035223     0.40700
H498        H  0.21867161  0.46841187  0.74179332     0.35600
C499        C  0.46205140  0.38789969  0.85904234    -0.26100
C500        C  0.44640056  0.42181855  0.86783783    -0.14200
C501        C  0.40975116  0.44755161  0.86362879     0.36400
C502        C  0.38977974  0.43959444  0.85062916    -0.25600
C503        C  0.40579622  0.40607541  0.84175925    -0.14800
C504        C  0.44181650  0.37970978  0.84608399     0.37500
N505        N  0.45746207  0.34440216  0.83742311    -0.89100
H506        H  0.49078744  0.36838812  0.86215214     0.18600
H507        H  0.36119563  0.45926698  0.84747969     0.18600
N508        N  0.39344164  0.48230826  0.87239050    -0.88100
H509        H  0.49099956  0.35004112  0.83529084     0.36000
H510        H  0.45525627  0.31492203  0.84309676     0.41100
H511        H  0.39493254  0.51199353  0.86680099     0.40700
H512        H  0.36006239  0.47585693  0.87453972     0.35600
C513        C  0.18822708  0.46601831  0.86305328    -0.26100
C514        C  0.16018515  0.43299125  0.86813777    -0.14200
C515        C  0.15234873  0.39444492  0.86008016     0.36400
C516        C  0.17240646  0.39034240  0.84705375    -0.25600
C517        C  0.20078936  0.42312980  0.84200599    -0.14800
C518        C  0.20886840  0.46158297  0.85009252     0.37500
N519        N  0.23795771  0.49642176  0.84562572    -0.89100
H520        H  0.18561132  0.99450521  0.86601633     0.18600
H521        H  0.16703241  0.36052835  0.84099110     0.18600
N522        N  0.12379222  0.35925811  0.86465744    -0.88100
H523        H  0.20871489  0.02324961  0.84095284     0.36000
H524        H  0.25268806  0.48948401  0.83605909     0.41100
H525        H  0.11153114  0.36494233  0.87465279     0.40700
H526        H  0.14314510  0.33048230  0.86537696     0.35600
C527        C  0.44551230  0.46532106  0.23797785    -0.26100
C528        C  0.44217470  0.49425173  0.22668652    -0.14200
C529        C  0.47900587  0.52211736  0.22412027     0.36400
C530        C  0.51893465  0.51769429  0.23198713    -0.25600
C531        C  0.52543248  0.48369173  0.24199286    -0.14800
C532        C  0.48501276  0.46115047  0.24596170     0.37500
N533        N  0.48197704  0.43586061  0.25856954    -0.89100
H534        H  0.41709664  0.44514314  0.24063326     0.18600
H535        H  0.54549620  0.54090268  0.23001999     0.18600
N536        N  0.47621295  0.55485970  0.21334401    -0.88100
H537        H  0.47124991  0.40397137  0.25601884     0.36000
H538        H  0.45762362  0.45028421  0.26486790     0.41100
H539        H  0.48209055  0.58580560  0.21785338     0.40700
H540        H  0.50161628  0.54858169  0.20620294     0.35600
C541        C  0.11634218  0.48240218  0.22622467    -0.26100
C542        C  0.11617234  0.47414664  0.24071406    -0.14200
C543        C  0.15916514  0.46459274  0.24685093     0.36400
C544        C  0.19809159  0.46272990  0.23857617    -0.25600
C545        C  0.19817137  0.47601600  0.22459631    -0.14800
C546        C  0.15607681  0.48825926  0.21868199     0.37500
N547        N  0.15205352  0.50954010  0.20531423    -0.89100
H548        H  0.08588564  0.48724611  0.22052174     0.18600
H549        H  0.22900782  0.45175345  0.24328669     0.18600
N550        N  0.16405456  0.45792230  0.26161150    -0.88100
H551        H  0.13809735  0.48716395  0.19823745     0.36000
H552        H  0.18255495  0.52047212  0.20157496     0.41100
H553        H  0.15854582  0.48831252  0.26649897     0.40700
H554        H  0.19655406  0.44858284  0.26424622     0.35600
C555        C  0.41269371  0.96953585  0.94369703    -0.26100
C556        C  0.43526548  0.93147600  0.93931766    -0.14200
C557        C  0.44143645  0.39112933  0.94991276     0.36400
C558        C  0.41645221  0.39017407  0.96222048    -0.25600
C559        C  0.38618830  0.93068343  0.96432951    -0.14800
C560        C  0.38847651  0.96985282  0.95618195     0.37500
N561        N  0.36611048  0.00972822  0.96045894    -0.89100
H562        H  0.41563504  0.99964247  0.93762338     0.18600
H563        H  0.41580563  0.35998986  0.96832204     0.18600
N564        N  0.46613031  0.35275079  0.94551888    -0.88100
H565        H  0.36851757  0.03415389  0.95276851     0.36000
H566        H  0.38312683  0.02196142  0.96916560     0.41100
H567        H  0.49994266  0.36039782  0.94611191     0.40700
H568        H  0.46110785  0.32638490  0.95239064     0.35600
C569        C  0.15876501  0.89535225  0.94833106    -0.26100
C570        C  0.16157066  0.93273540  0.93968715    -0.14200
C571        C  0.19166874  0.96649103  0.94309084     0.36400
C572        C  0.21773690  0.96295219  0.95524473    -0.25600
C573        C  0.21448563  0.92594335  0.96412124    -0.14800
C574        C  0.18501620  0.89144502  0.96048546     0.37500
N575        N  0.18103157  0.85311690  0.96926995    -0.89100
H576        H  0.14252483  0.36714931  0.94749663     0.18600
H577        H  0.24081357  0.98929722  0.95771061     0.18600
N578        N  0.19504919  0.00484243  0.93438250    -0.88100
H579        H  0.16625141  0.32665217  0.96639154     0.36000
H580        H  0.16796645  0.86362456  0.97879928     0.41100
H581        H  0.22794852  0.00723731  0.93103016     0.40700
H582        H  0.18792767  0.03272784  0.94045025     0.35600
C583        C  0.45315723  0.49329994  0.14725857    -0.26100
C584        C  0.42372683  0.46521566  0.15416374    -0.14200
C585        C  0.41247483  0.42381146  0.14813898     0.36400
C586        C  0.43081016  0.41180186  0.13533262    -0.25600
C587        C  0.46037798  0.43977866  0.12846591    -0.14800
C588        C  0.47179649  0.48107916  0.13448868     0.37500
N589        N  0.49398312  0.01959509  0.12687361    -0.89100
H590        H  0.46061829  0.52553020  0.15162585     0.18600
H591        H  0.42330284  0.37958659  0.13095550     0.18600
N592        N  0.38271816  0.39314819  0.15470025    -0.88100
H593        H  0.52247952  0.02121585  0.13315589     0.36000
H594        H  0.50418751  0.00950763  0.11699283     0.41100
H595        H  0.37266220  0.40392140  0.16453234     0.40700
H596        H  0.35422846  0.39109427  0.14845432     0.35600
C597        C  0.18468022  0.47410061  0.14817111    -0.26100
C598        C  0.21723519  0.44616020  0.15388859    -0.14200
C599        C  0.22804087  0.40606331  0.14695713     0.36400
C600        C  0.20549799  0.39484714  0.13459262    -0.25600
C601        C  0.17282118  0.42279802  0.12888343    -0.14800
C602        C  0.16273941  0.46337369  0.13570658     0.37500
N603        N  0.12352213  0.00322064  0.12907774    -0.89100
H604        H  0.16887820  0.01126763  0.15238318     0.18600
H605        H  0.21285248  0.36356461  0.12955826     0.18600
N606        N  0.26186751  0.37624025  0.15203768    -0.88100
H607        H  0.14003805  0.03329739  0.12776315     0.36000
H608        H  0.11163595  0.99467153  0.11920513     0.41100
H609        H  0.27642597  0.38757183  0.16126037     0.40700
H610        H  0.24643413  0.34631886  0.15448703     0.35600
C611        C  0.42040580  0.88029633  0.04877911    -0.26100
C612        C  0.44129295  0.91915580  0.05324435    -0.14200
C613        C  0.43457326  0.95850089  0.04565396     0.36400
C614        C  0.40763186  0.95828836  0.03360629    -0.25600
C615        C  0.38775519  0.91898378  0.02877052    -0.14800
C616        C  0.39407274  0.87971550  0.03663482     0.37500
N617        N  0.37910987  0.33207243  0.03446994    -0.89100
H618        H  0.43228777  0.34144648  0.05638027     0.18600
H619        H  0.40291421  0.98894904  0.02790488     0.18600
N620        N  0.45582678  0.99851996  0.05002239    -0.88100
H621        H  0.35911173  0.32117773  0.04265810     0.36000
H622        H  0.40385354  0.30825681  0.03280964     0.41100
H623        H  0.43113914  0.02231919  0.05177541     0.40700
H624        H  0.47570228  0.00963954  0.04183615     0.35600
C625        C  0.16055963  0.94173656  0.04423440    -0.26100
C626        C  0.16594172  0.90491520  0.05300521    -0.14200
C627        C  0.19613032  0.87132193  0.04937542     0.36400
C628        C  0.22031251  0.87489080  0.03694773    -0.25600
C629        C  0.21484922  0.91171651  0.02806481    -0.14800
C630        C  0.18456025  0.94552157  0.03178665     0.37500
N631        N  0.17768997  0.98317646  0.02284076    -0.89100
H632        H  0.13659422  0.96712470  0.04699451     0.18600
H633        H  0.24393542  0.84901102  0.03435117     0.18600
N634        N  0.20177181  0.83337663  0.05817783    -0.88100
H635        H  0.15458794  0.00507486  0.02718220     0.36000
H636        H  0.16368691  0.97167922  0.01352168     0.41100
H637        H  0.24273181  0.32247022  0.06281110     0.40700
H638        H  0.20206610  0.29617346  0.05386922     0.35600
N639        N  0.05804943  0.91709637  0.11043049    -0.36400
N640        N  0.13339488  0.39238364  0.09243454    -0.57000
N641        N  0.56206845  0.39746628  0.07130103    -0.36400
N642        N  0.49425569  0.40987911  0.09186422    -0.57000
C643        C  0.09325481  0.90613802  0.11851883     0.27200
C644        C  0.52159776  0.91280310  0.11839604     0.27200
C645        C  0.09698076  0.38275024  0.06377837     0.27200
C646        C  0.52502514  0.39181446  0.06339876     0.27200
C647        C  0.15217371  0.91593800  0.10123136     0.35800
C648        C  0.15797208  0.39770004  0.08083498     0.35800
C649        C  0.46457123  0.93467566  0.10101319     0.35800
C650        C  0.46956067  0.41922811  0.08044016     0.35800
C651        C  0.07904584  0.89337202  0.13162304    -0.23900
C652        C  0.53364029  0.89753334  0.13155156    -0.21700
C653        C  0.08194807  0.36700605  0.05101082    -0.21700
C654        C  0.53663982  0.37286338  0.05074612    -0.21700
C655        C  0.19393821  0.92786922  0.09661745    -0.22800
C656        C  0.20022179  0.41218589  0.08442347    -0.22800
C657        C  0.42421117  0.95247844  0.09673461    -0.22800
C658        C  0.43010303  0.43959400  0.08430960    -0.22800
C659        C  0.13743494  0.91626862  0.11520596    -0.18100
C660        C  0.47959928  0.93035664  0.11492686    -0.18100
C661        C  0.48189786  0.40750598  0.06673388    -0.18100
C662        C  0.14223928  0.39006077  0.06711353    -0.18100
H663        H  0.09952597  0.88475644  0.14054939     0.14800
H664        H  0.51226294  0.89260994  0.14044967     0.14800
H665        H  0.10187456  0.35453234  0.04249323     0.14800
H666        H  0.51508704  0.36552207  0.04198515     0.14800
H667        H  0.22164446  0.93927699  0.10287960     0.13100
H668        H  0.22740201  0.41930932  0.07743850     0.13100
H669        H  0.39850317  0.96648022  0.10326369     0.13100
H670        H  0.40325996  0.45037593  0.07753294     0.13100
H671        H  0.05958803  0.93511628  0.10120307     0.26300
H672        H  0.56448440  0.41670496  0.08023704     0.26300
O673        O  0.25791196  0.88630631  0.98122036    -0.74200
O674        O  0.34706450  0.88402203  0.01010542    -0.74300
O675        O  0.25835165  0.88026002  0.00982559    -0.74300
O676        O  0.34679410  0.88949571  0.98151780    -0.74400
O677        O  0.35038074  0.45867085  0.98560425    -0.74300
O678        O  0.26110211  0.44762146  0.01363482    -0.74300
O679        O  0.35002103  0.45136784  0.01414383    -0.74300
O680        O  0.26189180  0.45547017  0.98512438    -0.74300
Ni681      Ni  0.30266384  0.88241192  0.99561520     1.25400
Ni682      Ni  0.30572947  0.45587795  0.99970625     1.25400
C683        C  0.25014265  0.41969190  0.97897882     0.87900
C684        C  0.36479791  0.41382744  0.01841393     0.87900
C685        C  0.24965426  0.40897902  0.01776462     0.87900
C686        C  0.36484054  0.42387573  0.97946133     0.88100
N687        N  0.38182374  0.99360184  0.19012383    -0.36400
N688        N  0.31460263  0.98219768  0.21187183    -0.57000
N689        N  0.24671140  0.97495117  0.18985032    -0.36400
N690        N  0.31203047  0.98806426  0.16931752    -0.57000
C691        C  0.40725002  0.98356464  0.20137732     0.27200
C692        C  0.40471266  0.98098824  0.17861150     0.27200
C693        C  0.22666376  0.95852991  0.20127482     0.27200
C694        C  0.22661628  0.95690561  0.17849365     0.27200
C695        C  0.35017773  0.99534900  0.21973698     0.35800
C696        C  0.27678244  0.98828178  0.21950170     0.35800
C697        C  0.34655439  0.99955653  0.16133734     0.35800
C698        C  0.27578316  0.98980718  0.16107789     0.35800
C699        C  0.44707347  0.96493918  0.19694272    -0.21700
C700        C  0.44528212  0.96301095  0.18257354    -0.21700
C701        C  0.19372614  0.92911602  0.19716252    -0.21700
C702        C  0.19366762  0.92817693  0.18274954    -0.21700
C703        C  0.33483791  0.00966749  0.23257762    -0.22800
C704        C  0.28871578  0.00587118  0.23236816    -0.22800
C705        C  0.33193066  0.01099439  0.14805313    -0.22800
C706        C  0.28683929  0.00480644  0.14789096    -0.22800
C707        C  0.39609104  0.99276245  0.21546373    -0.18100
C708        C  0.39009898  0.98670302  0.16465763    -0.18100
C709        C  0.23628537  0.96809811  0.16449349    -0.18100
C710        C  0.23262380  0.97566445  0.21493079    -0.18100
H711        H  0.47446547  0.95353827  0.20339798     0.14800
H712        H  0.47103700  0.95024796  0.17581743     0.14800
H713        H  0.17091327  0.91161202  0.20386286     0.14800
H714        H  0.17127827  0.90943165  0.17617208     0.14800
H715        H  0.35474714  0.02199135  0.24116058     0.13100
H716        H  0.26679032  0.01493228  0.24080456     0.13100
H717        H  0.35212559  0.01873379  0.13907669     0.13100
H718        H  0.26546848  0.00719863  0.13880023     0.13100
H719        H  0.35205060  0.01138389  0.19032867     0.26300
H720        H  0.26867528  0.00156457  0.18992091     0.26300
N721        N  0.55484722  0.43761896  0.92619671    -0.36400
N722        N  0.11720496  0.94344102  0.90293599    -0.57000
N723        N  0.54678645  0.94046853  0.88233790    -0.36400
N724        N  0.47787588  0.93725698  0.90265002    -0.57000
C725        C  0.09094512  0.44623195  0.93422671     0.27200
C726        C  0.51854765  0.44563569  0.93406621     0.27200
C727        C  0.08195725  0.95294007  0.87467914     0.27200
C728        C  0.51025282  0.94829968  0.87450060     0.27200
C729        C  0.14277397  0.93322274  0.91410072     0.35800
C730        C  0.14153172  0.93428106  0.89149392     0.35800
C731        C  0.45358372  0.92719685  0.91396039     0.35800
C732        C  0.45359944  0.92545274  0.89137359     0.35800
C733        C  0.07745747  0.46028241  0.94729836    -0.21700
C734        C  0.53179392  0.45998550  0.94719919    -0.21700
C735        C  0.06758398  0.97013024  0.86199976    -0.21700
C736        C  0.52212862  0.96723207  0.86189563    -0.21700
C737        C  0.18425545  0.91874563  0.90976065    -0.22800
C738        C  0.18337705  0.91920512  0.89535531    -0.22800
C739        C  0.41283372  0.91004266  0.90988202    -0.22800
C740        C  0.41302232  0.90855240  0.89548403    -0.22800
C741        C  0.13551810  0.43722255  0.93053920    -0.18100
C742        C  0.47428060  0.43493200  0.93034583    -0.18100
C743        C  0.46779662  0.93190698  0.87753574    -0.18100
C744        C  0.12608746  0.94088472  0.87772472    -0.18100
H745        H  0.09836872  0.46863779  0.95612791     0.14800
H746        H  0.51079517  0.46784753  0.95599403     0.14800
H747        H  0.08788812  0.98106437  0.85338762     0.14800
H748        H  0.50045119  0.97568049  0.85323262     0.14800
H749        H  0.21827603  0.40786407  0.91851584     0.13100
H750        H  0.21029188  0.90964399  0.88852904     0.13100
H751        H  0.39248159  0.40027053  0.91897705     0.13100
H752        H  0.38636320  0.89686597  0.88883328     0.13100
H753        H  0.55504223  0.42088209  0.91674631     0.26300
H754        H  0.54822049  0.91984275  0.89100809     0.26300
N755        N  0.36449252  0.90565749  0.80109455    -0.36400
N756        N  0.29674362  0.92793679  0.77979502    -0.57000
N757        N  0.22935673  0.91789083  0.80130444    -0.36400
N758        N  0.29578178  0.89391601  0.82104654    -0.57000
C759        C  0.38851359  0.92423169  0.79081224     0.27200
C760        C  0.38698042  0.91184607  0.81323857     0.27200
C761        C  0.20965202  0.94176012  0.79107978     0.27200
C762        C  0.21024476  0.92986426  0.81351055     0.27200
C763        C  0.33268656  0.91767585  0.77183680     0.35800
C764        C  0.25933149  0.92211165  0.77189453     0.35800
C765        C  0.33066075  0.87918100  0.82850501     0.35800
C766        C  0.25955332  0.88660573  0.82878145     0.35800
C767        C  0.42712097  0.94213884  0.79643087    -0.21700
C768        C  0.42593365  0.93461568  0.81064158    -0.21700
C769        C  0.17829840  0.97009269  0.79689304    -0.21700
C770        C  0.17834330  0.96217741  0.81106784    -0.21700
C771        C  0.31814751  0.90499451  0.75871219    -0.22800
C772        C  0.27190247  0.90660639  0.75886251    -0.22800
C773        C  0.31638750  0.85942641  0.84073474    -0.22800
C774        C  0.27108372  0.86433580  0.84095223    -0.22800
C775        C  0.37806257  0.92105439  0.77642710    -0.18100
C776        C  0.37339410  0.89585692  0.82641681    -0.18100
C777        C  0.22010793  0.91045606  0.82659118    -0.18100
C778        C  0.21516850  0.93301696  0.77665216    -0.18100
H779        H  0.45358434  0.95844155  0.79084278     0.14800
H780        H  0.45119955  0.94401584  0.81814382     0.14800
H781        H  0.15648307  0.99283427  0.79139504     0.14800
H782        H  0.15699555  0.97793193  0.81865682     0.14800
H783        H  0.33865576  0.89455303  0.75006855     0.13100
H784        H  0.25029890  0.89684480  0.75037597     0.13100
H785        H  0.33681861  0.84732553  0.84926737     0.13100
H786        H  0.24997094  0.85641978  0.84968941     0.13100
H787        H  0.33646016  0.88606068  0.79956106     0.26300
H788        H  0.25079339  0.89112934  0.79971986     0.26300
N789        N  0.96954755  0.63155598  0.69336052    -0.36400
N790        N  0.92981665  0.70087576  0.67540076    -0.57000
N791        N  0.97914880  0.76607299  0.68914601    -0.36400
N792        N  0.51730900  0.69854479  0.70865445    -0.57000
C793        C  0.95682747  0.60802485  0.68194464     0.27200
C794        C  0.99471452  0.60453781  0.70159624     0.27200
C795        C  0.97153834  0.78643268  0.67668033     0.27200
C796        C  0.01290058  0.78744262  0.69551173     0.27200
C797        C  0.90972573  0.66473982  0.67040149     0.35800
C798        C  0.91388449  0.73554183  0.66813595     0.35800
C799        C  0.52505480  0.66369455  0.71746090     0.35800
C800        C  0.52720310  0.73678704  0.71557537     0.35800
C801        C  0.97198267  0.56512317  0.68311445    -0.21700
C802        C  0.99391459  0.56221639  0.69569032    -0.21700
C803        C  0.00079487  0.82133957  0.67518651    -0.21700
C804        C  0.02663719  0.82223081  0.68712467    -0.21700
C805        C  0.87805623  0.67680203  0.66050668    -0.22800
C806        C  0.88052900  0.72190700  0.65910511    -0.22800
C807        C  0.54221922  0.68033678  0.72986100    -0.22800
C808        C  0.54156213  0.72607376  0.72890478    -0.22800
C809        C  0.93135334  0.62373369  0.67048718    -0.18100
C810        C  0.51787899  0.61740740  0.71416897    -0.18100
C811        C  0.52646028  0.78055242  0.70954994    -0.18100
C812        C  0.93754781  0.77522135  0.66697356    -0.18100
H813        H  0.96610936  0.53813888  0.67591772     0.14800
H814        H  0.00700694  0.53143596  0.69964949     0.14800
H815        H  0.00255123  0.84444437  0.66657639     0.14800
H816        H  0.05199261  0.84638150  0.68955368     0.14800
H817        H  0.85919509  0.65491608  0.65380514     0.13100
H818        H  0.86351380  0.74141530  0.65123329     0.13100
H819        H  0.55444308  0.66195933  0.73875986     0.13100
H820        H  0.55184984  0.74857823  0.73704060     0.13100
H821        H  0.96004848  0.66377452  0.69564533     0.26300
H822        H  0.95922890  0.74271228  0.69402324     0.26300
N823        N  0.93861344  0.95276451  0.61171007    -0.36400
N824        N  0.94686960  0.02400589  0.59109382    -0.57000
N825        N  0.92162404  0.96197903  0.56990851    -0.36400
N826        N  0.91546537  0.89051619  0.59082889    -0.57000
C827        C  0.96000286  0.98422014  0.61905838     0.27200
C828        C  0.94364638  0.91452035  0.61890845     0.27200
C829        C  0.93588510  0.99629360  0.56199617     0.27200
C830        C  0.92254722  0.92550467  0.56174847     0.27200
C831        C  0.94969540  0.56495536  0.60260118     0.35800
C832        C  0.94521350  0.56736861  0.58004864     0.35800
C833        C  0.90833958  0.86406654  0.60197278     0.35800
C834        C  0.90159728  0.86825440  0.57946251     0.35800
C835        C  0.97889737  0.96581091  0.63098404    -0.21700
C836        C  0.96871510  0.92183891  0.63086036    -0.21700
C837        C  0.94511747  0.98165871  0.54864016    -0.21700
C838        C  0.93693382  0.93709347  0.54848168    -0.21700
C839        C  0.92687472  0.60354760  0.59931277    -0.22800
C840        C  0.92449118  0.60535957  0.58492374    -0.22800
C841        C  0.88945346  0.82461395  0.59770642    -0.22800
C842        C  0.88545857  0.82712742  0.58337484    -0.22800
C843        C  0.96220384  0.55086253  0.61609292    -0.18100
C844        C  0.92352937  0.87381503  0.61559226    -0.18100
C845        C  0.90913429  0.88225321  0.56561329    -0.18100
C846        C  0.95157132  0.55591104  0.56592977    -0.18100
H847        H  0.99725251  0.98243946  0.63916332     0.14800
H848        H  0.97797952  0.89819610  0.63886297     0.14800
H849        H  0.95683913  0.00102240  0.53991175     0.14800
H850        H  0.94093853  0.91576865  0.53950652     0.14800
H851        H  0.91416882  0.62810279  0.60649502     0.13100
H852        H  0.90917905  0.63138997  0.57876893     0.13100
H853        H  0.88132399  0.79639407  0.60415043     0.13100
H854        H  0.87345024  0.80117112  0.57656914     0.13100
H855        H  0.91667032  0.95864185  0.60348835     0.26300
H856        H  0.90792435  0.96400005  0.57981641     0.26300
O857        O  0.89315957  0.75988456  0.48110969    -0.74200
O858        O  0.89749414  0.67352881  0.51060130    -0.74300
O859        O  0.88645849  0.76119419  0.50973171    -0.74300
O860        O  0.90407487  0.67168157  0.48200796    -0.74400
O861        O  0.97729198  0.68025355  0.48395656    -0.74300
O862        O  0.95981155  0.77003998  0.51123661    -0.74300
O863        O  0.97068871  0.68285727  0.51225878    -0.74300
O864        O  0.96661738  0.76779198  0.48278427    -0.74300
Ni865      Ni  0.89260709  0.71629857  0.49576925     1.25400
Ni866      Ni  0.97111601  0.72562343  0.49759801     1.25400
C867        C  0.92962888  0.77644637  0.47666687     0.87900
C868        C  0.93467619  0.66568113  0.51676673     0.87900
C869        C  0.92056276  0.77808724  0.51570583     0.87900
C870        C  0.94364716  0.66219746  0.47808315     0.88100
C871        C  0.54433990  0.94676282  0.74324850    -0.02300
N872        N  0.94520865  0.97083420  0.42580153    -0.36400
N873        N  0.96319776  0.04314551  0.40648322    -0.57000
N874        N  0.97362633  0.97826259  0.38510372    -0.36400
N875        N  0.95742235  0.90599623  0.40401321    -0.57000
C876        C  0.95314731  0.00489913  0.43461085     0.27200
C877        C  0.94954505  0.93312150  0.43333133     0.27200
C878        C  0.98981467  0.01480416  0.37886502     0.27200
C879        C  0.98647280  0.94345645  0.37728869     0.27200
C880        C  0.98208770  0.56168939  0.41744021     0.35800
C881        C  0.99941639  0.56278012  0.39556506     0.35800
C882        C  0.94323195  0.87843282  0.41411670     0.35800
C883        C  0.95639506  0.88302309  0.39194313     0.35800
C884        C  0.96243888  0.98865664  0.44785371    -0.21700
C885        C  0.96018562  0.94343038  0.44704614    -0.21700
C886        C  0.01402953  0.00310620  0.36718031    -0.21700
C887        C  0.01155525  0.95816622  0.36608334    -0.21700
C888        C  0.97293273  0.60416043  0.41266423    -0.22800
C889        C  0.98393811  0.60481677  0.39870896    -0.22800
C890        C  0.93391301  0.83720160  0.40850454    -0.22800
C891        C  0.94216108  0.84016365  0.39438587    -0.22800
C892        C  0.97815094  0.54680952  0.43131862    -0.18100
C893        C  0.94176343  0.88969052  0.42840915    -0.18100
C894        C  0.97154629  0.89970649  0.37906446    -0.18100
C895        C  0.01537483  0.54844715  0.38253050    -0.18100
H896        H  0.96968759  0.00743634  0.45719836     0.14800
H897        H  0.96556584  0.92072732  0.45563701     0.14800
H898        H  0.02981879  0.02491117  0.35976035     0.14800
H899        H  0.02538080  0.93917580  0.35759534     0.14800
H900        H  0.96011776  0.63176156  0.41863731     0.13100
H901        H  0.98121527  0.63289044  0.39173165     0.13100
H902        H  0.92299077  0.80799234  0.41403015     0.13100
H903        H  0.93906753  0.81364817  0.38685810     0.13100
H904        H  0.93249458  0.97343485  0.41573624     0.26300
H905        H  0.94898051  0.97768475  0.39264303     0.26300
N906        N  0.03900407  0.66087726  0.30696344    -0.36400
N907        N  0.05014704  0.72866864  0.28523337    -0.57000
N908        N  0.01732907  0.79313926  0.30500789    -0.36400
N909        N  0.00065141  0.72374884  0.32546795    -0.57000
C910        C  0.06296441  0.63888284  0.29734273     0.27200
C911        C  0.04407955  0.63877736  0.31920980     0.27200
C912        C  0.02099406  0.81940324  0.29359109     0.27200
C913        C  0.99399761  0.81618902  0.31470220     0.27200
C914        C  0.56097032  0.69210145  0.27760672     0.35800
C915        C  0.55817713  0.76554137  0.27742998     0.35800
C916        C  0.99877157  0.68846142  0.33400227     0.35800
C917        C  0.98232638  0.75743307  0.33252970     0.35800
C918        C  0.08371999  0.60258573  0.30350788    -0.21700
C919        C  0.07189623  0.60264751  0.31734358    -0.21700
C920        C  0.99807417  0.85880842  0.29604804    -0.21700
C921        C  0.98229511  0.85719986  0.30946143    -0.21700
C922        C  0.57575254  0.70590750  0.26466342    -0.22800
C923        C  0.57582904  0.75188485  0.26477317    -0.22800
C924        C  0.97722280  0.69928018  0.34629524    -0.22800
C925        C  0.96701596  0.74312916  0.34539559    -0.22800
C926        C  0.56199168  0.64733620  0.28285359    -0.18100
C927        C  0.02195965  0.64876276  0.33177813    -0.18100
C928        C  0.98366726  0.80185488  0.32832322    -0.18100
C929        C  0.54706651  0.81052782  0.28143231    -0.18100
H930        H  0.10431536  0.57798166  0.29843612     0.14800
H931        H  0.08164861  0.57822476  0.32505399     0.14800
H932        H  0.99362068  0.88644946  0.28898742     0.14800
H933        H  0.96354367  0.88292015  0.31468350     0.14800
H934        H  0.58749802  0.68549463  0.25619354     0.13100
H935        H  0.58762300  0.77229081  0.25633957     0.13100
H936        H  0.97173230  0.67857569  0.35533319     0.13100
H937        H  0.95173553  0.76256241  0.35356085     0.13100
H938        H  0.01591190  0.68558132  0.30465277     0.26300
H939        H  0.03459514  0.76382271  0.30680998     0.26300
C940        C  0.56473089  0.98025100  0.24957418    -0.02300
C941        C  0.07386523  0.93194746  0.27226206    -0.26100
C942        C  0.56458882  0.93488789  0.25783961    -0.14200
C943        C  0.55705825  0.89392911  0.25078990     0.36400
C944        C  0.55108855  0.85408893  0.25837544    -0.25600
C945        C  0.56014944  0.85132230  0.27277180    -0.14800
C946        C  0.07627428  0.89079449  0.27928411     0.37500
N947        N  0.09588513  0.89039357  0.29300347    -0.89100
H948        H  0.08284952  0.96139905  0.27801561     0.18600
H949        H  0.53784530  0.82576656  0.25289678     0.18600
N950        N  0.55192894  0.89323805  0.23592638    -0.88100
H951        H  0.07512892  0.90807486  0.29972390     0.36000
H952        H  0.09959169  0.85825810  0.29686578     0.41100
H953        H  0.52051877  0.88056262  0.23352745     0.40700
H954        H  0.57575183  0.87152473  0.23188760     0.35600
C955        C  0.10043654  0.59864190  0.26484617    -0.26100
C956        C  0.56444453  0.60632956  0.27369502    -0.14200
C957        C  0.53320309  0.57146563  0.27522094     0.36400
C958        C  0.53979271  0.53040702  0.26860121    -0.25600
C959        C  0.56646532  0.02350411  0.25912963    -0.14800
C960        C  0.10472543  0.55899154  0.25706522     0.37500
N961        N  0.13897262  0.55797137  0.24678712    -0.89100
H962        H  0.12564256  0.62385494  0.26378057     0.18600
H963        H  0.50436038  0.00688399  0.26897771     0.18600
N964        N  0.49315893  0.57710747  0.28308831    -0.88100
H965        H  0.16951347  0.56335124  0.25175529     0.36000
H966        H  0.13335269  0.58387017  0.23974338     0.41100
H967        H  0.47663430  0.60544519  0.27949048     0.40700
H968        H  0.50074671  0.58100554  0.29363953     0.35600
C969        C  0.01385333  0.85548476  0.36198347    -0.26100
C970        C  0.97265001  0.87128261  0.36654697    -0.14200
C971        C  0.93521984  0.86856758  0.35769617     0.36400
C972        C  0.93938454  0.84930646  0.34443799    -0.25600
C973        C  0.98090732  0.83418015  0.33982959    -0.14800
C974        C  0.01847052  0.83830851  0.34856133     0.37500
N975        N  0.06117888  0.82346185  0.34389234    -0.89100
H976        H  0.04299418  0.85890720  0.36859306     0.18600
H977        H  0.91012712  0.84464526  0.33797036     0.18600
N978        N  0.89313215  0.88551470  0.36217884    -0.88100
H979        H  0.07270695  0.79917696  0.35081231     0.36000
H980        H  0.08298957  0.85027710  0.34436949     0.41100
H981        H  0.87023170  0.85960420  0.36188985     0.40700
H982        H  0.38272876  0.90960792  0.35501822     0.35600
C983        C  0.05556283  0.62649939  0.35434064    -0.26100
C984        C  0.02418058  0.61791335  0.34378160    -0.14200
C985        C  0.98872805  0.58869727  0.34644360     0.36400
C986        C  0.98492326  0.56977404  0.35966556    -0.25600
C987        C  0.01618668  0.57828132  0.37026155    -0.14800
C988        C  0.05229316  0.60671827  0.36752438     0.37500
N989        N  0.08602419  0.61622348  0.37776077    -0.89100
H990        H  0.08193700  0.65003984  0.35244828     0.18600
H991        H  0.45816594  0.54664309  0.36156573     0.18600
N992        N  0.45588654  0.57782368  0.33605816    -0.88100
H993        H  0.11606786  0.60339517  0.37406418     0.36000
H994        H  0.03852351  0.11450714  0.38761894     0.41100
H995        H  0.46311358  0.59196992  0.32640964     0.40700
H996        H  0.42549372  0.59109319  0.33930955     0.35600
C997        C  0.89690780  0.85630530  0.44747885    -0.26100
C998        C  0.93517058  0.85480171  0.43914926    -0.14200
C999        C  0.97028665  0.82630100  0.44286986     0.36400
C1000       C  0.96755925  0.80113682  0.45511641    -0.25600
C1001       C  0.93009176  0.80374125  0.46380352    -0.14800
C1002       C  0.89394899  0.83104065  0.45979182     0.37500
N1003       N  0.85520915  0.83430389  0.46844277    -0.89100
H1004       H  0.87026590  0.87898783  0.44470365     0.18600
H1005       H  0.99516584  0.77961279  0.45788681     0.18600
N1006       N  0.00952805  0.82423661  0.43450525    -0.88100
H1007       H  0.83167544  0.85565853  0.46395438     0.36000
H1008       H  0.86496582  0.84871911  0.47787839     0.41100
H1009       H  0.03666624  0.83299726  0.44075885     0.40700
H1010       H  0.01400666  0.79141820  0.43131881     0.35600
C1011       C  0.99331608  0.63211587  0.45976259    -0.26100
C1012       C  0.95125887  0.63192784  0.46614132    -0.14200
C1013       C  0.91743805  0.60459211  0.46058104     0.36400
C1014       C  0.92645589  0.57868673  0.44875116    -0.25600
C1015       C  0.96849709  0.57907108  0.44252614    -0.14800
C1016       C  0.00234651  0.60575448  0.44809106     0.37500
N1017       N  0.04621678  0.60452087  0.44222108    -0.89100
H1018       H  0.01946542  0.65301418  0.46386013     0.18600
H1019       H  0.90103080  0.55705071  0.44456437     0.18600
N1020       N  0.87448315  0.60249091  0.46704096    -0.88100
H1021       H  0.06781599  0.62473985  0.44791207     0.36000
H1022       H  0.02546812  0.11025255  0.43061612     0.41100
H1023       H  0.87887779  0.58830248  0.47690591     0.40700
H1024       H  0.35342904  0.58130969  0.46149280     0.35600
C1025       C  0.87237728  0.84627642  0.54545048    -0.26100
C1026       C  0.90933600  0.84875571  0.55439090    -0.14200
C1027       C  0.94929064  0.82686575  0.55078672     0.36400
C1028       C  0.95190743  0.80505334  0.53799896    -0.25600
C1029       C  0.91556561  0.80379094  0.52873003    -0.14800
C1030       C  0.87503399  0.82367691  0.53269628     0.37500
N1031       N  0.83698116  0.82225630  0.52366918    -0.89100
H1032       H  0.84199213  0.86368186  0.54810714     0.18600
H1033       H  0.98291457  0.78877849  0.53534498     0.18600
N1034       N  0.98849446  0.82789414  0.55946396    -0.88100
H1035       H  0.82744097  0.85480816  0.52138122     0.36000
H1036       H  0.81104295  0.80728368  0.52910593     0.41100
H1037       H  0.98322076  0.84508144  0.56874010     0.40700
H1038       H  0.99593918  0.79526837  0.56232365     0.35600
C1039       C  0.90626016  0.58585178  0.54634798    -0.26100
C1040       C  0.94434904  0.58946107  0.55479773    -0.14200
C1041       C  0.97816666  0.61937199  0.55099779     0.36400
C1042       C  0.97382876  0.64337932  0.53858028    -0.25600
C1043       C  0.93658490  0.63868194  0.52975231    -0.14800
C1044       C  0.90188957  0.61014500  0.53386917     0.37500
N1045       N  0.86296237  0.60494946  0.52527129    -0.89100
H1046       H  0.88071714  0.56242544  0.54922375     0.18600
H1047       H  0.00030360  0.66587743  0.53580464     0.18600
N1048       N  0.01815838  0.62497362  0.55909914    -0.88100
H1049       H  0.34038034  0.58338174  0.52996075     0.36000
H1050       H  0.87291642  0.58982377  0.51598911     0.41100
H1051       H  0.01846457  0.60523146  0.56801830     0.40700
H1052       H  0.01879965  0.65780182  0.56255643     0.35600
C1053       C  0.89177269  0.85014113  0.63811657    -0.26100
C1054       C  0.92128003  0.84082764  0.62715712    -0.14200
C1055       C  0.95563793  0.80930751  0.62937107     0.36400
C1056       C  0.96033591  0.78937025  0.64252785    -0.25600
C1057       C  0.93222427  0.80039399  0.65365965    -0.14800
C1058       C  0.89701326  0.83078524  0.65134820     0.37500
N1059       N  0.36637447  0.84323320  0.66216041    -0.89100
H1060       H  0.36604638  0.87506587  0.63663371     0.18600
H1061       H  0.98676259  0.76539303  0.64416374     0.18600
N1062       N  0.98781431  0.79856277  0.61885072    -0.88100
H1063       H  0.37035566  0.87711387  0.66397889     0.36000
H1064       H  0.37377113  0.82733906  0.67156411     0.41100
H1065       H  0.98160473  0.81553080  0.60955886     0.40700
H1066       H  0.98451688  0.76490548  0.61656314     0.35600
C1067       C  0.90972294  0.57355985  0.65097587    -0.26100
C1068       C  0.93950321  0.60454677  0.65646267    -0.14200
C1069       C  0.97309842  0.62234023  0.64774475     0.36400
C1070       C  0.97671725  0.60765558  0.63397652    -0.25600
C1071       C  0.94816602  0.57533804  0.62868932    -0.14800
C1072       C  0.91368995  0.55862831  0.63720084     0.37500
N1073       N  0.38736145  0.05572667  0.63574669    -0.89100
H1074       H  0.38302373  0.56114008  0.65741867     0.18600
H1075       H  0.00385323  0.61953377  0.62761339     0.18600
N1076       N  0.00478117  0.65456420  0.65253047    -0.88100
H1077       H  0.37893709  0.03049982  0.64270197     0.36000
H1078       H  0.38219340  0.04344116  0.62569847     0.41100
H1079       H  0.00172223  0.66147751  0.66312580     0.40700
H1080       H  0.99845670  0.68403364  0.64713761     0.35600
C1081       C  0.50347493  0.85671050  0.71701367    -0.26100
C1082       C  0.53530990  0.82248917  0.71795928    -0.14200
C1083       C  0.07455647  0.83158959  0.72573795     0.36400
C1084       C  0.07762635  0.87116875  0.73364405    -0.25600
C1085       C  0.54493741  0.90552613  0.73294542    -0.14800
C1086       C  0.50893754  0.89794036  0.72359823     0.37500
N1087       N  0.47701485  0.93202109  0.72076691    -0.89100
H1088       H  0.47387538  0.85185695  0.71070628     0.18600
H1089       H  0.10657733  0.87430877  0.74024574     0.18600
N1090       N  0.11302676  0.80322630  0.72526946    -0.88100
H1091       H  0.44554791  0.91994972  0.72328923     0.36000
H1092       H  0.47729669  0.93856009  0.71005630     0.41100
H1093       H  0.10874616  0.77710767  0.71829789     0.40700
H1094       H  0.11825494  0.78997633  0.73522834     0.35600
C1095       C  0.53539294  0.53640512  0.74537122    -0.26100
C1096       C  0.54753390  0.99351514  0.73575459    -0.14200
C1097       C  0.06263863  0.00025226  0.72187234     0.36400
C1098       C  0.06194389  0.54591060  0.71808800    -0.25600
C1099       C  0.53562188  0.58025661  0.72371589    -0.14800
C1100       C  0.52304697  0.57531774  0.73787161     0.37500
N1101       N  0.49505384  0.60789037  0.74438150    -0.89100
H1102       H  0.52688157  0.53401076  0.75630727     0.18600
H1103       H  0.07605382  0.55008802  0.70780034     0.18600
N1104       N  0.07781489  0.96406736  0.71348785    -0.88100
H1105       H  0.48816205  0.59898354  0.75467656     0.36000
H1106       H  0.46467207  0.60832911  0.73902534     0.41100
H1107       H  0.11081387  0.97001516  0.71069744     0.40700
H1108       H  0.05873054  0.96340711  0.70434680     0.35600
C1109       C  0.42028579  0.96062775  0.75764870    -0.26100
C1110       C  0.41647446  0.92379592  0.76633646    -0.14200
C1111       C  0.45197786  0.89278599  0.76638657     0.36400
C1112       C  0.49088331  0.90091458  0.75863891    -0.25600
C1113       C  0.49781786  0.94067833  0.75108088    -0.14800
C1114       C  0.45889939  0.96865126  0.74969977     0.37500
N1115       N  0.45574503  0.00333260  0.73955214    -0.89100
H1116       H  0.39269031  0.98375777  0.75696627     0.18600
H1117       H  0.51709605  0.87619959  0.75896363     0.18600
N1118       N  0.44941090  0.85232910  0.77414226    -0.88100
H1119       H  0.44800564  0.03277714  0.74475520     0.36000
H1120       H  0.42914425  0.99648749  0.73283544     0.41100
H1121       H  0.42066728  0.83559647  0.77102664     0.40700
H1122       H  0.44696812  0.85960758  0.78474507     0.35600
C1123       C  0.13154055  0.92344369  0.77360680    -0.26100
C1124       C  0.17286678  0.93461857  0.76753767    -0.14200
C1125       C  0.17073072  0.95257923  0.75396084     0.36400
C1126       C  0.12967994  0.95431393  0.74663687    -0.25600
C1127       C  0.08777830  0.94532082  0.75294514    -0.14800
C1128       C  0.09023108  0.93447638  0.76744912     0.37500
N1129       N  0.05482254  0.94269476  0.77706373    -0.89100
H1130       H  0.13084937  0.91055621  0.78414117     0.18600
H1131       H  0.13092121  0.96443199  0.73586583     0.18600
N1132       N  0.20926256  0.97158608  0.74770445    -0.88100
H1133       H  0.04031033  0.91292776  0.78021437     0.36000
H1134       H  0.03215527  0.96618348  0.77344492     0.41100
H1135       H  0.20256491  0.00505036  0.74580404     0.40700
H1136       H  0.21423162  0.95625171  0.73805826     0.35600
C1137       C  0.45451386  0.88537023  0.85662384    -0.26100
C1138       C  0.43966961  0.91963676  0.86541349    -0.14200
C1139       C  0.40375620  0.94636050  0.86119436     0.36400
C1140       C  0.38401011  0.93931876  0.84811378    -0.25600
C1141       C  0.39945369  0.90564853  0.83920707    -0.14800
C1142       C  0.43437826  0.87799213  0.84360946     0.37500
N1143       N  0.44893247  0.84216067  0.83497465    -0.89100
H1144       H  0.48260735  0.86500967  0.85977087     0.18600
H1145       H  0.35600509  0.95976368  0.84493942     0.18600
N1146       N  0.38798782  0.98116157  0.87003688    -0.88100
H1147       H  0.48273008  0.84652307  0.83294533     0.36000
H1148       H  0.44541264  0.81276769  0.84062322     0.41100
H1149       H  0.39028044  0.01099899  0.86456054     0.40700
H1150       H  0.35441416  0.97536495  0.87208045     0.35600
C1151       C  0.18115187  0.96414934  0.86015885    -0.26100
C1152       C  0.15432085  0.93060009  0.86556078    -0.14200
C1153       C  0.14700879  0.89163137  0.85765130     0.36400
C1154       C  0.16622374  0.88767008  0.84447206    -0.25600
C1155       C  0.19342854  0.92099041  0.83910404    -0.14800
C1156       C  0.20102189  0.95985162  0.84705429     0.37500
N1157       N  0.22892834  0.99527479  0.84231097    -0.89100
H1158       H  0.19314988  0.49601371  0.86905729     0.18600
H1159       H  0.16130354  0.85747713  0.83856083     0.18600
N1160       N  0.11977942  0.85583285  0.86254183    -0.88100
H1161       H  0.21851668  0.52488907  0.84417831     0.36000
H1162       H  0.24307008  0.98850353  0.83264613     0.41100
H1163       H  0.10813365  0.86153091  0.87261146     0.40700
H1164       H  0.13996699  0.82761762  0.86321035     0.35600
C1165       C  0.43857421  0.96518539  0.23665439    -0.26100
C1166       C  0.43485365  0.99562687  0.22576127    -0.14200
C1167       C  0.47105507  0.02477362  0.22378962     0.36400
C1168       C  0.51069496  0.02040444  0.23184697    -0.25600
C1169       C  0.51780069  0.98519914  0.24141970    -0.14800
C1170       C  0.47778306  0.96103925  0.24482014     0.37500
N1171       N  0.47455317  0.93446996  0.25715433    -0.89100
H1172       H  0.41055519  0.94398845  0.23891024     0.18600
H1173       H  0.53655308  0.04477001  0.23040007     0.18600
N1174       N  0.46787701  0.05892514  0.21346794    -0.88100
H1175       H  0.46471536  0.90261302  0.25423427     0.36000
H1176       H  0.44952263  0.94775003  0.26343959     0.41100
H1177       H  0.47260200  0.08935817  0.21843736     0.40700
H1178       H  0.49382952  0.05439253  0.20639458     0.35600
C1179       C  0.10908323  0.98787013  0.22590901    -0.26100
C1180       C  0.10865029  0.97671885  0.24022597    -0.14200
C1181       C  0.15154999  0.96494325  0.24608037     0.36400
C1182       C  0.19041022  0.96370329  0.23770198    -0.25600
C1183       C  0.19067572  0.97927268  0.22394090    -0.14800
C1184       C  0.14887291  0.99375268  0.21836969     0.37500
N1185       N  0.14527592  0.01704565  0.20532566    -0.89100
H1186       H  0.07886675  0.99464996  0.22030553     0.18600
H1187       H  0.22115050  0.95123365  0.24215662     0.18600
N1188       N  0.15644692  0.95517853  0.26067083    -0.88100
H1189       H  0.13038794  0.99615098  0.19798802     0.36000
H1190       H  0.17608665  0.02729151  0.20163659     0.41100
H1191       H  0.15129514  0.98455124  0.26617502     0.40700
H1192       H  0.18883915  0.94492077  0.26308466     0.35600
C1193       C  0.41782071  0.46721180  0.94611889    -0.26100
C1194       C  0.44224742  0.43013397  0.94189360    -0.14200
C1195       C  0.43258210  0.89230594  0.94719291     0.36400
C1196       C  0.40775063  0.89216286  0.95953722    -0.25600
C1197       C  0.39294249  0.42774993  0.96683228    -0.14800
C1198       C  0.39340824  0.46672452  0.95856151     0.37500
N1199       N  0.36882191  0.50550268  0.96264232    -0.89100
H1200       H  0.41931669  0.49721916  0.93993957     0.18600
H1201       H  0.40572131  0.86182231  0.96552295     0.18600
N1202       N  0.45532023  0.85294899  0.94263135    -0.88100
H1203       H  0.36996137  0.52968751  0.95484469     0.36000
H1204       H  0.38504143  0.51904640  0.97130329     0.41100
H1205       H  0.48947692  0.85900473  0.94316093     0.40700
H1206       H  0.44919826  0.82665060  0.94943648     0.35600
C1207       C  0.16590751  0.39284973  0.95032939    -0.26100
C1208       C  0.16826697  0.43107414  0.94205636    -0.14200
C1209       C  0.19809596  0.46477434  0.94572092     0.36400
C1210       C  0.22422423  0.46041563  0.95782532    -0.25600
C1211       C  0.22129966  0.42261263  0.96637318    -0.14800
C1212       C  0.19225208  0.38809738  0.96242516     0.37500
N1213       N  0.18877241  0.34888816  0.97083920    -0.89100
H1214       H  0.13511474  0.86965003  0.94573301     0.18600
H1215       H  0.24705388  0.48675668  0.96051643     0.18600
N1216       N  0.20112391  0.50386930  0.93733116    -0.88100
H1217       H  0.15819314  0.83077846  0.96504046     0.36000
H1218       H  0.17554993  0.35829642  0.98045940     0.41100
H1219       H  0.23398568  0.50681727  0.93398773     0.40700
H1220       H  0.19379849  0.53117939  0.94362886     0.35600
C1221       C  0.44567626  0.99907102  0.14608776    -0.26100
C1222       C  0.41682111  0.96992688  0.15281605    -0.14200
C1223       C  0.40614249  0.92892819  0.14641363     0.36400
C1224       C  0.42416974  0.91851205  0.13340915    -0.25600
C1225       C  0.45311134  0.94756646  0.12670553    -0.14800
C1226       C  0.46421738  0.98833590  0.13315183     0.37500
N1227       N  0.50191412  0.51141196  0.12793249    -0.89100
H1228       H  0.45275775  0.03099408  0.15073226     0.18600
H1229       H  0.41705931  0.88659240  0.12875981     0.18600
N1230       N  0.37729924  0.89705430  0.15280445    -0.88100
H1231       H  0.53032758  0.51346955  0.13423607     0.36000
H1232       H  0.51218564  0.50022638  0.11817633     0.41100
H1233       H  0.36767083  0.90662547  0.16280152     0.40700
H1234       H  0.34847365  0.89513304  0.14670431     0.35600
C1235       C  0.17647349  0.98056345  0.14703091    -0.26100
C1236       C  0.20858024  0.95186425  0.15264377    -0.14200
C1237       C  0.21979684  0.91267083  0.14526121     0.36400
C1238       C  0.19819857  0.90312877  0.13258138    -0.25600
C1239       C  0.16601372  0.93184854  0.12697493    -0.14800
C1240       C  0.15548680  0.97150991  0.13425864     0.37500
N1241       N  0.13036590  0.49439246  0.13036077    -0.89100
H1242       H  0.17730300  0.50537956  0.15321694     0.18600
H1243       H  0.20579334  0.87243861  0.12723156     0.18600
N1244       N  0.25320811  0.88213961  0.15019341    -0.88100
H1245       H  0.14675459  0.52425877  0.12852208     0.36000
H1246       H  0.11767566  0.48457690  0.12070926     0.41100
H1247       H  0.26687822  0.89209705  0.15970383     0.40700
H1248       H  0.23758601  0.85189213  0.15206795     0.35600
C1249       C  0.42707126  0.37215706  0.05073894    -0.26100
C1250       C  0.44856657  0.41062966  0.05523907    -0.14200
C1251       C  0.44198933  0.45032611  0.04782654     0.36400
C1252       C  0.41456776  0.45084008  0.03589701    -0.25600
C1253       C  0.39409188  0.41192128  0.03101210    -0.14800
C1254       C  0.40021073  0.37231192  0.03871452     0.37500
N1255       N  0.37375793  0.83904292  0.03242365    -0.89100
H1256       H  0.42582189  0.84981211  0.05452338     0.18600
H1257       H  0.40998134  0.48173948  0.03031474     0.18600
N1258       N  0.46384586  0.48995433  0.05225623    -0.88100
H1259       H  0.35353715  0.82811868  0.04055323     0.36000
H1260       H  0.39891736  0.81553370  0.03095003     0.41100
H1261       H  0.43949023  0.51393876  0.05419855     0.40700
H1262       H  0.48349574  0.50117523  0.04402942     0.35600
C1263       C  0.16695977  0.43294655  0.04661609    -0.26100
C1264       C  0.17270114  0.39561187  0.05514547    -0.14200
C1265       C  0.20312988  0.36250101  0.05130572     0.36400
C1266       C  0.22710782  0.36699189  0.03887817    -0.25600
C1267       C  0.22120467  0.40427381  0.03021519    -0.14800
C1268       C  0.19074437  0.43764536  0.03416605     0.37500
N1269       N  0.18347289  0.47576228  0.02544744    -0.89100
H1270       H  0.14285389  0.45799167  0.04955918     0.18600
H1271       H  0.25092915  0.34147706  0.03611142     0.18600
N1272       N  0.20923772  0.32413458  0.05989551    -0.88100
H1273       H  0.16027259  0.49723276  0.02994673     0.36000
H1274       H  0.16941415  0.46470154  0.01608453     0.41100
H1275       H  0.23521393  0.83155874  0.06114447     0.40700
H1276       H  0.19441015  0.80515920  0.05229509     0.35600
N1277       N  0.56486475  0.40685318  0.11249374    -0.36400
N1278       N  0.62650782  0.90317457  0.09031703    -0.57000
N1279       N  0.05509624  0.90752942  0.06923645    -0.36400
N1280       N  0.98731952  0.91955188  0.08988651    -0.57000
C1281       C  0.59999349  0.39636339  0.12067206     0.27200
C1282       C  0.02835678  0.40345245  0.12046726     0.27200
C1283       C  0.59004242  0.89288065  0.06170373     0.27200
C1284       C  0.01798957  0.90132492  0.06140082     0.27200
C1285       C  0.65900331  0.40529681  0.10333827     0.35800
C1286       C  0.65105614  0.90837484  0.07870604     0.35800
C1287       C  0.97166247  0.42542948  0.10295154     0.35800
C1288       C  0.96237994  0.92843576  0.07847231     0.35800
C1289       C  0.58566640  0.38476373  0.13387243    -0.23900
C1290       C  0.04026355  0.38916964  0.13374710    -0.21700
C1291       C  0.57497128  0.87662570  0.04900640    -0.21700
C1292       C  0.02962194  0.88208948  0.04878853    -0.21700
C1293       C  0.70077062  0.41726293  0.09873648    -0.22800
C1294       C  0.69333228  0.92281275  0.08228999    -0.22800
C1295       C  0.93161058  0.44385892  0.09864296    -0.22800
C1296       C  0.92265630  0.94820078  0.08238685    -0.22800
C1297       C  0.64420572  0.40617351  0.11729412    -0.18100
C1298       C  0.98658360  0.42128843  0.11686493    -0.18100
C1299       C  0.97471358  0.91664706  0.06475310    -0.18100
C1300       C  0.63533381  0.90031441  0.06499891    -0.18100
H1301       H  0.60607955  0.37687755  0.14288016     0.14800
H1302       H  0.01882358  0.38520996  0.14268033     0.14800
H1303       H  0.59486699  0.86395082  0.04051098     0.14800
H1304       H  0.00803318  0.87421712  0.04008372     0.14800
H1305       H  0.72840520  0.42887129  0.10499334     0.13100
H1306       H  0.72053743  0.92977568  0.07529751     0.13100
H1307       H  0.90610702  0.45837179  0.10514215     0.13100
H1308       H  0.89555462  0.95847443  0.07563346     0.13100
H1309       H  0.56655158  0.42429250  0.10316336     0.26300
H1310       H  0.05742641  0.92689916  0.07814680     0.26300
O1311       O  0.76466327  0.38200298  0.98322874    -0.74200
O1312       O  0.85330415  0.37802464  0.01220760    -0.74300
O1313       O  0.76463668  0.37415880  0.01176880    -0.74300
O1314       O  0.85350099  0.38532763  0.98368366    -0.74400
O1315       O  0.84395019  0.96292943  0.98298877    -0.74300
O1316       O  0.75494883  0.95382834  0.01119887    -0.74300
O1317       O  0.84390027  0.95745790  0.01159632    -0.74300
O1318       O  0.75542771  0.95989006  0.98262563    -0.74300
Ni1319     Ni  0.80915483  0.37727054  0.99765449     1.25400
Ni1320     Ni  0.79944938  0.96112162  0.99716572     1.25400
C1321       C  0.74346023  0.92375500  0.97673126     0.87900
C1322       C  0.85862587  0.92016916  0.01610265     0.87900
C1323       C  0.74343800  0.91549688  0.01559695     0.87900
C1324       C  0.85821859  0.92772028  0.97703465     0.88100
N1325       N  0.88922207  0.49078192  0.19126043    -0.36400
N1326       N  0.82223597  0.47930039  0.21296147    -0.57000
N1327       N  0.75500375  0.47085360  0.19089527    -0.36400
N1328       N  0.81968791  0.48531760  0.17047918    -0.57000
C1329       C  0.91419868  0.48012723  0.20253548     0.27200
C1330       C  0.91182252  0.47723981  0.17981863     0.27200
C1331       C  0.73558062  0.45398513  0.20233967     0.27200
C1332       C  0.73558382  0.45184600  0.17960457     0.27200
C1333       C  0.85749198  0.49352037  0.22074403     0.35800
C1334       C  0.78424987  0.48597024  0.22042626     0.35800
C1335       C  0.85421841  0.49682356  0.16252642     0.35800
C1336       C  0.78358686  0.48605455  0.16217793     0.35800
C1337       C  0.95339281  0.45999547  0.19821103    -0.21700
C1338       C  0.95169800  0.45787120  0.18385007    -0.21700
C1339       C  0.70382717  0.42319806  0.19833031    -0.21700
C1340       C  0.70378516  0.42193557  0.18392397    -0.21700
C1341       C  0.84183636  0.50922970  0.23338197    -0.22800
C1342       C  0.79572660  0.50516607  0.23310792    -0.22800
C1343       C  0.83964255  0.50770147  0.14918705    -0.22800
C1344       C  0.79461275  0.50080422  0.14896446    -0.22800
C1345       C  0.90332465  0.49056551  0.21651866    -0.18100
C1346       C  0.89752327  0.48331332  0.16587239    -0.18100
C1347       C  0.74470456  0.46332682  0.16561471    -0.18100
C1348       C  0.74049553  0.47232850  0.21583611    -0.18100
H1349       H  0.98030221  0.44785708  0.20473519     0.14800
H1350       H  0.97707042  0.44409736  0.17714633     0.14800
H1351       H  0.68158385  0.40518033  0.20508399     0.14800
H1352       H  0.68205375  0.40228681  0.17739383     0.14800
H1353       H  0.86150074  0.52267340  0.24185071     0.13100
H1354       H  0.77354125  0.51517195  0.24137054     0.13100
H1355       H  0.85992255  0.51510436  0.14020115     0.13100
H1356       H  0.77340409  0.50231026  0.13981976     0.13100
H1357       H  0.86007726  0.50961685  0.19140534     0.26300
H1358       H  0.77577025  0.49842125  0.19091297     0.26300
N1359       N  0.04822535  0.93778994  0.92369296    -0.36400
N1360       N  0.62360091  0.44427582  0.90550195    -0.57000
N1361       N  0.05295327  0.44296721  0.88493017    -0.36400
N1362       N  0.98418211  0.43883787  0.90518770    -0.57000
C1363       C  0.58424693  0.94707589  0.93168322     0.27200
C1364       C  0.01182496  0.94605810  0.93150446     0.27200
C1365       C  0.58816145  0.45582573  0.87735777     0.27200
C1366       C  0.01645885  0.45123473  0.87712215     0.27200
C1367       C  0.64921736  0.43312273  0.91655493     0.35800
C1368       C  0.64773025  0.43565427  0.89399664     0.35800
C1369       C  0.96001567  0.42811234  0.91646505     0.35800
C1370       C  0.95981670  0.42762367  0.89386171     0.35800
C1371       C  0.57059937  0.96178372  0.94466916    -0.21700
C1372       C  0.02494288  0.96117801  0.94456196    -0.21700
C1373       C  0.57386021  0.47374506  0.86477117    -0.21700
C1374       C  0.02837976  0.47083697  0.86462656    -0.21700
C1375       C  0.69055746  0.41863163  0.91209485    -0.22800
C1376       C  0.68951614  0.42001063  0.89770572    -0.22800
C1377       C  0.91919820  0.41126331  0.91232468    -0.22800
C1378       C  0.91925710  0.41055263  0.89791735    -0.22800
C1379       C  0.62892121  0.93810471  0.92807168    -0.18100
C1380       C  0.96757498  0.93516369  0.92780000    -0.18100
C1381       C  0.97406667  0.43451041  0.88004048    -0.18100
C1382       C  0.63218021  0.44321063  0.88031109    -0.18100
H1383       H  0.59141078  0.97078545  0.95345746     0.14800
H1384       H  0.00389793  0.96942856  0.95330992     0.14800
H1385       H  0.59424279  0.48504778  0.85622416     0.14800
H1386       H  0.00672224  0.47968982  0.85599886     0.14800
H1387       H  0.71198197  0.90859154  0.91627627     0.13100
H1388       H  0.71628614  0.41068889  0.89079100     0.13100
H1389       H  0.88603686  0.89944565  0.91657057     0.13100
H1390       H  0.89255181  0.39918892  0.89122944     0.13100
H1391       H  0.04859502  0.92060183  0.91432926     0.26300
H1392       H  0.05435755  0.42174433  0.89346089     0.26300
N1393       N  0.87037129  0.40484671  0.80367559    -0.36400
N1394       N  0.80204748  0.42970135  0.78263539    -0.57000
N1395       N  0.73563964  0.42134465  0.80423060    -0.36400
N1396       N  0.80220388  0.39423702  0.82369051    -0.57000
C1397       C  0.89382910  0.42390962  0.79336792     0.27200
C1398       C  0.89304395  0.41138518  0.81577509     0.27200
C1399       C  0.71600987  0.44632484  0.79425530     0.27200
C1400       C  0.71747150  0.43316320  0.81657633     0.27200
C1401       C  0.83745991  0.41904688  0.77449340     0.35800
C1402       C  0.76422898  0.42654070  0.77474665     0.35800
C1403       C  0.83700143  0.37903580  0.83110429     0.35800
C1404       C  0.76604316  0.38774621  0.83151494     0.35800
C1405       C  0.93219643  0.44254767  0.79891885    -0.21700
C1406       C  0.93151853  0.43484748  0.81311556    -0.21700
C1407       C  0.68576996  0.47516788  0.80036544    -0.21700
C1408       C  0.68636224  0.46648428  0.81447731    -0.21700
C1409       C  0.82209704  0.40875259  0.76123610    -0.22800
C1410       C  0.77591932  0.41247952  0.76147679    -0.22800
C1411       C  0.82265540  0.35959079  0.84336969    -0.22800
C1412       C  0.77742919  0.36527301  0.84366671    -0.22800
C1413       C  0.88312748  0.42071196  0.77901033    -0.18100
C1414       C  0.87978798  0.39551899  0.82899372    -0.18100
C1415       C  0.72720513  0.41270616  0.82948487    -0.18100
C1416       C  0.72059674  0.43852872  0.77976847    -0.18100
H1417       H  0.95815148  0.45950933  0.79329223     0.14800
H1418       H  0.95670400  0.44478117  0.82057387     0.14800
H1419       H  0.66435228  0.49882761  0.79510499     0.14800
H1420       H  0.66584398  0.48240981  0.82225284     0.14800
H1421       H  0.84199891  0.39889125  0.75238871     0.13100
H1422       H  0.75376442  0.40526893  0.75287007     0.13100
H1423       H  0.84307670  0.34739135  0.85189145     0.13100
H1424       H  0.75637590  0.35796340  0.85247250     0.13100
H1425       H  0.84254561  0.38491997  0.80217206     0.26300
H1426       H  0.75624321  0.39408660  0.80241665     0.26300
N1427       N  0.52033379  0.13986516  0.68954691    -0.36400
N1428       N  0.51169524  0.20909627  0.66815319    -0.57000
N1429       N  0.53763356  0.27330282  0.68835780    -0.36400
N1430       N  0.04479613  0.20402331  0.71039956    -0.57000
C1431       C  0.49911882  0.11770773  0.67917405     0.27200
C1432       C  0.51647314  0.11516613  0.70130913     0.27200
C1433       C  0.53963489  0.29865082  0.67663640     0.27200
C1434       C  0.55657284  0.29673281  0.69878173     0.27200
C1435       C  0.50029906  0.17426186  0.66024259     0.35800
C1436       C  0.50939633  0.24459657  0.65966205     0.35800
C1437       C  0.05101412  0.16705131  0.71839072     0.35800
C1438       C  0.05589091  0.24011496  0.71814567     0.35800
C1439       C  0.48119602  0.07901683  0.68434864    -0.21700
C1440       C  0.49115603  0.07788491  0.69832862    -0.21700
C1441       C  0.56006615  0.33841604  0.67964844    -0.21700
C1442       C  0.57098735  0.33717916  0.69356207    -0.21700
C1443       C  0.49028399  0.18776364  0.64672186    -0.22800
C1444       C  0.49574150  0.23235969  0.64639002    -0.22800
C1445       C  0.06792995  0.18000923  0.73123018    -0.22800
C1446       C  0.06885064  0.22590477  0.73130988    -0.22800
C1447       C  0.49680201  0.13048330  0.66501230    -0.18100
C1448       C  0.03847109  0.12277994  0.71432962    -0.18100
C1449       C  0.05764029  0.28508006  0.71316586    -0.18100
C1450       C  0.52261006  0.28749919  0.66332546    -0.18100
H1451       H  0.46254250  0.05426180  0.67867694     0.14800
H1452       H  0.48156208  0.05185638  0.70545386     0.14800
H1453       H  0.56630612  0.36558008  0.67256794     0.14800
H1454       H  0.58719062  0.36352148  0.69927804     0.14800
H1455       H  0.47940058  0.16781976  0.63798655     0.13100
H1456       H  0.49104000  0.25311210  0.63728963     0.13100
H1457       H  0.07845585  0.15906627  0.73977168     0.13100
H1458       H  0.07984426  0.24614758  0.73993735     0.13100
H1459       H  0.54109858  0.16694854  0.68817600     0.26300
H1460       H  0.51976004  0.24433301  0.68971050     0.26300
N1461       N  0.48350276  0.47494484  0.61067199    -0.36400
N1462       N  0.46121376  0.54336792  0.59084078    -0.57000
N1463       N  0.46387281  0.47612132  0.56953342    -0.36400
N1464       N  0.48849063  0.40802530  0.58972959    -0.57000
C1465       C  0.48682856  0.51187941  0.61846097     0.27200
C1466       C  0.50526233  0.44253416  0.61765564     0.27200
C1467       C  0.46606877  0.51337213  0.56172771     0.27200
C1468       C  0.47621580  0.44206431  0.56127358     0.27200
C1469       C  0.45051013  0.04806404  0.60288159     0.35800
C1470       C  0.44187365  0.05309283  0.58049158     0.35800
C1471       C  0.49046923  0.38179046  0.60112291     0.35800
C1472       C  0.47686404  0.38202944  0.57891673     0.35800
C1473       C  0.51167350  0.50320169  0.63039211    -0.21700
C1474       C  0.52366462  0.45941927  0.62982273    -0.21700
C1475       C  0.48030174  0.50276572  0.54838815    -0.21700
C1476       C  0.48646688  0.45769221  0.54808575    -0.21700
C1477       C  0.44858455  0.09286225  0.59977194    -0.22800
C1478       C  0.44320545  0.09605858  0.58551568    -0.22800
C1479       C  0.48092893  0.33845759  0.59752482    -0.22800
C1480       C  0.47220421  0.33860146  0.58336915    -0.22800
C1481       C  0.45867420  0.02986796  0.61620776    -0.18100
C1482       C  0.50241723  0.39712719  0.61451717    -0.18100
C1483       C  0.47443836  0.39692199  0.56498721    -0.18100
C1484       C  0.43943323  0.04086310  0.56630173    -0.18100
H1485       H  0.51881007  0.52555171  0.63892112     0.14800
H1486       H  0.54163058  0.44145313  0.63785678     0.14800
H1487       H  0.48468016  0.52501361  0.53965462     0.14800
H1488       H  0.49662512  0.43849477  0.53911159     0.14800
H1489       H  0.45160995  0.12026235  0.60698102     0.13100
H1490       H  0.44119094  0.12638785  0.57952330     0.13100
H1491       H  0.48049305  0.30991149  0.60434914     0.13100
H1492       H  0.46399229  0.31006063  0.57705463     0.13100
H1493       H  0.46085639  0.47052812  0.60257758     0.26300
H1494       H  0.44903696  0.47307262  0.57924049     0.26300
O1495       O  0.42220364  0.26533716  0.48455392    -0.74200
O1496       O  0.41318092  0.17881411  0.51370276    -0.74300
O1497       O  0.42146518  0.26731892  0.51304729    -0.74300
O1498       O  0.41404714  0.17724560  0.48515199    -0.74400
O1499       O  0.48770948  0.16980927  0.48575136    -0.74300
O1500       O  0.49514189  0.26038574  0.51328665    -0.74300
O1501       O  0.48679450  0.17193018  0.51423076    -0.74300
O1502       O  0.49586373  0.25772725  0.48478816    -0.74300
Ni1503     Ni  0.41510018  0.22242255  0.49912424     1.25400
Ni1504     Ni  0.49398057  0.21472072  0.49955397     1.25400
C1505       C  0.46036333  0.27443419  0.47944473     0.87900
C1506       C  0.44847496  0.16180908  0.51907146     0.87900
C1507       C  0.45949953  0.27791490  0.51805728     0.87900
C1508       C  0.44990783  0.16009965  0.48040398     0.88100
C1509       C  0.04992205  0.45180266  0.74658004    -0.02300
N1510       N  0.47953974  0.46663160  0.42687065    -0.36400
N1511       N  0.49887286  0.53689925  0.40704784    -0.57000
N1512       N  0.50793694  0.46917419  0.38646385    -0.36400
N1513       N  0.49151680  0.39880651  0.40592058    -0.57000
C1514       C  0.48459735  0.50218182  0.43529450     0.27200
C1515       C  0.48478052  0.43010975  0.43492390     0.27200
C1516       C  0.52646531  0.50400945  0.37994171     0.27200
C1517       C  0.51836169  0.43303101  0.37893767     0.27200
C1518       C  0.44983498  0.06688233  0.41756726     0.35800
C1519       C  0.46254554  0.07075927  0.39542489     0.35800
C1520       C  0.47717118  0.37296175  0.41643082     0.35800
C1521       C  0.48565635  0.37580347  0.39398338     0.35800
C1522       C  0.49315040  0.48821909  0.44882221    -0.21700
C1523       C  0.49363755  0.44279890  0.44857402    -0.21700
C1524       C  0.55010153  0.48966265  0.36840960    -0.21700
C1525       C  0.54458023  0.44480609  0.36768318    -0.21700
C1526       C  0.44135745  0.11033102  0.41362325    -0.22800
C1527       C  0.44909234  0.11268960  0.39946908    -0.22800
C1528       C  0.46343794  0.33241417  0.41121634    -0.22800
C1529       C  0.46838615  0.33441822  0.39689471    -0.22800
C1530       C  0.44935399  0.05034342  0.43130042    -0.18100
C1531       C  0.47761933  0.38581297  0.43061431    -0.18100
C1532       C  0.49868917  0.39143425  0.38075493    -0.18100
C1533       C  0.47723925  0.05843832  0.38206490    -0.18100
H1534       H  0.49802614  0.50865382  0.45796949     0.14800
H1535       H  0.49889591  0.42154138  0.45753024     0.14800
H1536       H  0.56706121  0.50980962  0.36078456     0.14800
H1537       H  0.55687381  0.42377006  0.35942692     0.14800
H1538       H  0.43129550  0.13747555  0.42027994     0.13100
H1539       H  0.44642671  0.14197395  0.39300323     0.13100
H1540       H  0.45087258  0.30459585  0.41709217     0.13100
H1541       H  0.46104686  0.30827178  0.38952997     0.13100
H1542       H  0.46731836  0.46749486  0.41672184     0.26300
H1543       H  0.48271096  0.47073621  0.39381146     0.26300
N1544       N  0.51883383  0.16280064  0.30662671    -0.36400
N1545       N  0.54588541  0.22916757  0.28600167    -0.57000
N1546       N  0.51399445  0.29665185  0.30512492    -0.36400
N1547       N  0.47866010  0.22933699  0.32353522    -0.57000
C1548       C  0.54591016  0.13924134  0.29822294     0.27200
C1549       C  0.51743017  0.14138876  0.31907996     0.27200
C1550       C  0.52269966  0.32273331  0.29396807     0.27200
C1551       C  0.49257825  0.32211139  0.31464790     0.27200
C1552       C  0.05497033  0.19177974  0.27852877     0.35800
C1553       C  0.05675383  0.26526073  0.27817134     0.35800
C1554       C  0.46827106  0.19418034  0.33143351     0.35800
C1555       C  0.46250914  0.26478335  0.33025236     0.35800
C1556       C  0.56208234  0.10251339  0.30538651    -0.21700
C1557       C  0.54424005  0.10401128  0.31858697    -0.21700
C1558       C  0.50445887  0.36458266  0.29642216    -0.21700
C1559       C  0.48716729  0.36452269  0.30965019    -0.21700
C1560       C  0.07155199  0.20430074  0.26567341    -0.22800
C1561       C  0.07433667  0.25016246  0.26566471    -0.22800
C1562       C  0.44230506  0.20711883  0.34266047    -0.22800
C1563       C  0.43910439  0.25207295  0.34198300    -0.22800
C1564       C  0.05188840  0.14710676  0.28379512    -0.18100
C1565       C  0.49050312  0.15340284  0.33054792    -0.18100
C1566       C  0.47640544  0.30800840  0.32764192    -0.18100
C1567       C  0.04862406  0.31107389  0.28198462    -0.18100
H1568       H  0.58358121  0.07673655  0.30135812     0.14800
H1569       H  0.54936911  0.07969726  0.32674421     0.14800
H1570       H  0.50360133  0.39272968  0.28945004     0.14800
H1571       H  0.47057372  0.39189099  0.31476151     0.14800
H1572       H  0.08220082  0.18300593  0.25727357     0.13100
H1573       H  0.08772006  0.26958303  0.25723527     0.13100
H1574       H  0.43054795  0.18699597  0.35120614     0.13100
H1575       H  0.42403936  0.27311673  0.34978372     0.13100
H1576       H  0.49833935  0.18863570  0.30329634     0.26300
H1577       H  0.52634458  0.26500001  0.30694892     0.26300
C1578       C  0.07241868  0.47853513  0.24996560    -0.02300
C1579       C  0.58248620  0.42996505  0.27256905    -0.26100
C1580       C  0.07204747  0.43328645  0.25823809    -0.14200
C1581       C  0.06272193  0.39263789  0.25121272     0.36400
C1582       C  0.05535232  0.35320046  0.25883659    -0.25600
C1583       C  0.06493464  0.35022313  0.27317945    -0.14800
C1584       C  0.58384948  0.38868067  0.27953608     0.37500
N1585       N  0.60435184  0.38716524  0.29312133    -0.89100
H1586       H  0.59268780  0.45912177  0.27827348     0.18600
H1587       H  0.04039374  0.32552365  0.25346110     0.18600
N1588       N  0.05686286  0.39206928  0.23637231    -0.88100
H1589       H  0.58533801  0.40629730  0.29995832     0.36000
H1590       H  0.60593001  0.35489222  0.29700437     0.41100
H1591       H  0.02484229  0.38067190  0.23412590     0.40700
H1592       H  0.07958213  0.36938827  0.23223795     0.35600
C1593       C  0.59363203  0.09782768  0.26650867    -0.26100
C1594       C  0.05601866  0.10586206  0.27469254    -0.14200
C1595       C  0.02327826  0.07203489  0.27502258     0.36400
C1596       C  0.02991521  0.03163508  0.26799803    -0.25600
C1597       C  0.07478930  0.52237521  0.25915220    -0.14800
C1598       C  0.59816974  0.05907747  0.25824646     0.37500
N1599       N  0.63461786  0.05794938  0.24874751    -0.89100
H1600       H  0.61981488  0.12228033  0.26626533     0.18600
H1601       H  0.01550896  0.50493237  0.27043367     0.18600
N1602       N  0.98141917  0.07833656  0.28184989    -0.88100
H1603       H  0.66414710  0.06146611  0.25444134     0.36000
H1604       H  0.63161231  0.08494058  0.24196785     0.41100
H1605       H  0.96710628  0.10788148  0.27828707     0.40700
H1606       H  0.98607468  0.08015326  0.29261190     0.35600
C1607       C  0.52485504  0.34143495  0.36205852    -0.26100
C1608       C  0.49011514  0.36607275  0.36785161    -0.14200
C1609       C  0.45208064  0.37583866  0.35970987     0.36400
C1610       C  0.44886424  0.35992719  0.34598155    -0.25600
C1611       C  0.48381045  0.33539597  0.34020290    -0.14800
C1612       C  0.52227628  0.32675150  0.34825013     0.37500
N1613       N  0.55842182  0.30200975  0.34241732    -0.89100
H1614       H  0.55494574  0.33552144  0.36806085     0.18600
H1615       H  0.41867321  0.36545945  0.33999950     0.18600
N1616       N  0.41704774  0.40250023  0.36535447    -0.88100
H1617       H  0.56369274  0.27390516  0.34858720     0.36000
H1618       H  0.58696446  0.32156991  0.34296786     0.41100
H1619       H  0.38766520  0.38420128  0.36490718     0.40700
H1620       H  0.91300429  0.43033970  0.35895923     0.35600
C1621       C  0.51903988  0.13546848  0.35410317    -0.26100
C1622       C  0.48910087  0.12548064  0.34325576    -0.14200
C1623       C  0.45215233  0.09824442  0.34600717     0.36400
C1624       C  0.44650762  0.08124512  0.35942988    -0.25600
C1625       C  0.47726197  0.08984132  0.37017603    -0.14800
C1626       C  0.51378395  0.11783067  0.36751354     0.37500
N1627       N  0.54624385  0.12863176  0.37802043    -0.89100
H1628       H  0.54616451  0.15813542  0.35218519     0.18600
H1629       H  0.91916722  0.05876048  0.36130464     0.18600
N1630       N  0.91977279  0.08723729  0.33548003    -0.88100
H1631       H  0.57666647  0.11507312  0.37492215     0.36000
H1632       H  0.57977252  0.60052115  0.38723567     0.41100
H1633       H  0.92824934  0.10002815  0.32574809     0.40700
H1634       H  0.88960866  0.10193703  0.33832604     0.35600
C1635       C  0.43298723  0.35685801  0.45039351    -0.26100
C1636       C  0.47039538  0.35244461  0.44181302    -0.14200
C1637       C  0.50392687  0.32202111  0.44549932     0.36400
C1638       C  0.50020412  0.29732970  0.45785382    -0.25600
C1639       C  0.46342573  0.30258055  0.46673702    -0.14800
C1640       C  0.42930185  0.33270671  0.46288270     0.37500
N1641       N  0.39175104  0.33980602  0.47183015    -0.89100
H1642       H  0.40765102  0.38102656  0.44765479     0.18600
H1643       H  0.52635141  0.27393555  0.46049557     0.18600
N1644       N  0.54247021  0.31718739  0.43692956    -0.88100
H1645       H  0.36962405  0.36271623  0.46739861     0.36000
H1646       H  0.40357751  0.35405002  0.48105828     0.41100
H1647       H  0.57046197  0.32443078  0.44300626     0.40700
H1648       H  0.54468461  0.28404949  0.43384599     0.35600
C1649       C  0.48764581  0.12600721  0.46015311    -0.26100
C1650       C  0.44850340  0.13113614  0.46796699    -0.14200
C1651       C  0.40879663  0.11110590  0.46320559     0.36400
C1652       C  0.40923576  0.08679553  0.45072428    -0.25600
C1653       C  0.44844356  0.08185259  0.44306492    -0.14800
C1654       C  0.48803445  0.10140325  0.44779135     0.37500
N1655       N  0.52878026  0.09458894  0.44029952    -0.89100
H1656       H  0.51816164  0.14151167  0.46362313     0.18600
H1657       H  0.37929550  0.07041978  0.44714426     0.18600
N1658       N  0.36851173  0.11471461  0.47112810    -0.88100
H1659       H  0.55528989  0.10995645  0.44543311     0.36000
H1660       H  0.54428651  0.61805186  0.43220173     0.41100
H1661       H  0.37372646  0.09811174  0.48057368     0.40700
H1662       H  0.84237687  0.09845208  0.46605696     0.35600
C1663       C  0.43026634  0.36090530  0.54646988    -0.26100
C1664       C  0.47102963  0.36437812  0.55352499    -0.14200
C1665       C  0.50824739  0.34019563  0.54874755     0.36400
C1666       C  0.50353659  0.31290921  0.53706617    -0.25600
C1667       C  0.46269292  0.30915754  0.52993847    -0.14800
C1668       C  0.42569470  0.33361528  0.53475360     0.37500
N1669       N  0.38356703  0.33140890  0.52774859    -0.89100
H1670       H  0.40191122  0.38008693  0.54998814     0.18600
H1671       H  0.53234600  0.29438794  0.53359020     0.18600
N1672       N  0.55147134  0.34336364  0.55515711    -0.88100
H1673       H  0.37474078  0.36339040  0.52455184     0.36000
H1674       H  0.35989637  0.32063335  0.53491601     0.41100
H1675       H  0.55191454  0.36578644  0.56342036     0.40700
H1676       H  0.55930887  0.31230914  0.55934582     0.35600
C1677       C  0.40339974  0.08631077  0.54781022    -0.26100
C1678       C  0.44233589  0.07534803  0.55517389    -0.14200
C1679       C  0.48336413  0.09292635  0.55066610     0.36400
C1680       C  0.48424564  0.12057187  0.53888593    -0.25600
C1681       C  0.44534261  0.13124184  0.53132097    -0.14800
C1682       C  0.40430994  0.11373988  0.53593472     0.37500
N1683       N  0.36372469  0.12304872  0.52847646    -0.89100
H1684       H  0.37216900  0.07213847  0.55113609     0.18600
H1685       H  0.51598570  0.13369200  0.53561668     0.18600
N1686       N  0.52490219  0.08243324  0.55743068    -0.88100
H1687       H  0.83653227  0.10876448  0.53349897     0.36000
H1688       H  0.36598271  0.10767980  0.51873778     0.41100
H1689       H  0.52076206  0.06086972  0.56581185     0.40700
H1690       H  0.53760907  0.11184830  0.56155169     0.35600
C1691       C  0.47377551  0.36475632  0.63623757    -0.26100
C1692       C  0.50813345  0.36609628  0.62641362    -0.14200
C1693       C  0.54923436  0.34524222  0.62952661     0.36400
C1694       C  0.55445243  0.32301777  0.64229817    -0.25600
C1695       C  0.51980480  0.32128796  0.65204985    -0.14800
C1696       C  0.47912412  0.34308272  0.64903629     0.37500
N1697       N  0.94210998  0.34309549  0.65853824    -0.89100
H1698       H  0.94261113  0.38194791  0.63406721     0.18600
H1699       H  0.58524921  0.30544070  0.64442995     0.18600
N1700       N  0.58637555  0.34643301  0.62016180    -0.88100
H1701       H  0.93547587  0.37601946  0.66121245     0.36000
H1702       H  0.95007419  0.32693682  0.66785057     0.41100
H1703       H  0.57872129  0.36372570  0.61102313     0.40700
H1704       H  0.59330408  0.31386443  0.61717598     0.35600
C1705       C  0.44450563  0.08620683  0.65096353    -0.26100
C1706       C  0.48864754  0.09720249  0.65404040    -0.14200
C1707       C  0.52246954  0.08793516  0.64421614     0.36400
C1708       C  0.51098831  0.06958674  0.63136153    -0.25600
C1709       C  0.46683646  0.05899494  0.62824518    -0.14800
C1710       C  0.43319505  0.06671828  0.63823122     0.37500
N1711       N  0.88257236  0.52615029  0.63225177    -0.89100
H1712       H  0.91826987  0.09470683  0.65824172     0.18600
H1713       H  0.53694855  0.06184953  0.62393963     0.18600
N1714       N  0.56845368  0.09811160  0.64678873    -0.88100
H1715       H  0.88867026  0.49678793  0.63772540     0.36000
H1716       H  0.88691765  0.51924653  0.62167657     0.41100
H1717       H  0.57369639  0.10944048  0.65694572     0.40700
H1718       H  0.57731932  0.12370607  0.64001782     0.35600
C1719       C  0.02187748  0.35441418  0.72133326    -0.26100
C1720       C  0.05743534  0.32441599  0.72293722    -0.14200
C1721       C  0.59381330  0.33787133  0.73134054     0.36400
C1722       C  0.59129366  0.37816935  0.73881234    -0.25600
C1723       C  0.05568956  0.40922339  0.73704329    -0.14800
C1724       C  0.02192946  0.39668734  0.72743594     0.37500
N1725       N  0.98713838  0.42683575  0.72369087    -0.89100
H1726       H  0.99464926  0.34599013  0.71437673     0.18600
H1727       H  0.61850516  0.38450501  0.74587729     0.18600
N1728       N  0.63478667  0.31324720  0.73200384    -0.88100
H1729       H  0.95677278  0.41180942  0.72595092     0.36000
H1730       H  0.98839350  0.43204543  0.71291705     0.41100
H1731       H  0.63455362  0.28613777  0.72528823     0.40700
H1732       H  0.63867258  0.30131361  0.74218544     0.35600
C1733       C  0.03995025  0.03267473  0.74363584    -0.26100
C1734       C  0.04942205  0.49741687  0.73837520    -0.14200
C1735       C  0.56575400  0.50392631  0.72461468     0.36400
C1736       C  0.56474151  0.04335233  0.71617756    -0.25600
C1737       C  0.04781684  0.08106710  0.72312832    -0.14800
C1738       C  0.03508760  0.07503548  0.73722170     0.37500
N1739       N  0.01432308  0.11051873  0.74476677    -0.89100
H1740       H  0.03187786  0.02924836  0.75457643     0.18600
H1741       H  0.57668781  0.04685957  0.70559172     0.18600
N1742       N  0.58755274  0.46889059  0.71723508    -0.88100
H1743       H  0.00641507  0.10051097  0.75488858     0.36000
H1744       H  0.98426149  0.11797686  0.73974662     0.41100
H1745       H  0.61959714  0.47934414  0.71469353     0.40700
H1746       H  0.57019226  0.46348612  0.70792150     0.35600
C1747       C  0.92353158  0.45857456  0.75955541    -0.26100
C1748       C  0.92159025  0.42340822  0.76891884    -0.14200
C1749       C  0.95886751  0.39443650  0.76955648     0.36400
C1750       C  0.99795131  0.40408424  0.76205231    -0.25600
C1751       C  0.00289635  0.44305546  0.75395435    -0.14800
C1752       C  0.96184864  0.46728434  0.75158239     0.37500
N1753       N  0.95613348  0.49807032  0.74034572    -0.89100
H1754       H  0.89452774  0.47964978  0.75825394     0.18600
H1755       H  0.02564096  0.38116235  0.76291819     0.18600
N1756       N  0.95787015  0.35435554  0.77754975    -0.88100
H1757       H  0.94463428  0.52793013  0.74454097     0.36000
H1758       H  0.93093683  0.48645080  0.73376815     0.41100
H1759       H  0.93026591  0.33596737  0.77435673     0.40700
H1760       H  0.95447528  0.36192740  0.78809784     0.35600
C1761       C  0.63650395  0.43101641  0.77697143    -0.26100
C1762       C  0.67785111  0.44240493  0.77090554    -0.14200
C1763       C  0.67548512  0.46308102  0.75773085     0.36400
C1764       C  0.63421065  0.46669019  0.75056559    -0.25600
C1765       C  0.59249499  0.45521876  0.75662160    -0.14800
C1766       C  0.59504371  0.44262974  0.77095863     0.37500
N1767       N  0.55934856  0.44943484  0.78058815    -0.89100
H1768       H  0.63600089  0.41702048  0.78736728     0.18600
H1769       H  0.63538195  0.47879766  0.74001098     0.18600
N1770       N  0.71426654  0.48228382  0.75168694    -0.88100
H1771       H  0.54703218  0.41894311  0.78395628     0.36000
H1772       H  0.53459267  0.47013967  0.77661410     0.41100
H1773       H  0.70825124  0.51614598  0.75035577     0.40700
H1774       H  0.71867103  0.46843802  0.74179482     0.35600
C1775       C  0.96204067  0.38789073  0.85904347    -0.26100
C1776       C  0.94639481  0.42181373  0.86783822    -0.14200
C1777       C  0.90974976  0.44755186  0.86362845     0.36400
C1778       C  0.88977815  0.43959578  0.85062873    -0.25600
C1779       C  0.90579044  0.40607305  0.84175944    -0.14800
C1780       C  0.94180561  0.37970196  0.84608506     0.37500
N1781       N  0.95744576  0.34438995  0.83742499    -0.89100
H1782       H  0.99077337  0.36837517  0.86215381     0.18600
H1783       H  0.86119746  0.45927215  0.84747872     0.18600
N1784       N  0.89344511  0.48231253  0.87238947    -0.88100
H1785       H  0.99098443  0.35002250  0.83529296     0.36000
H1786       H  0.95523401  0.31491119  0.84309918     0.41100
H1787       H  0.89494121  0.51199610  0.86679959     0.40700
H1788       H  0.86006404  0.47586679  0.87453855     0.35600
C1789       C  0.68823161  0.46601809  0.86305571    -0.26100
C1790       C  0.66018631  0.43299273  0.86813947    -0.14200
C1791       C  0.65234226  0.39445133  0.86008015     0.36400
C1792       C  0.67239688  0.39035162  0.84705313    -0.25600
C1793       C  0.70078315  0.42313735  0.84200614    -0.14800
C1794       C  0.70886850  0.46158617  0.85009411     0.37500
N1795       N  0.73795963  0.49642410  0.84562782    -0.89100
H1796       H  0.68561386  0.99451519  0.86601357     0.18600
H1797       H  0.66701782  0.36054074  0.84098937     0.18600
N1798       N  0.62378046  0.35926724  0.86465626    -0.88100
H1799       H  0.70871044  0.02325897  0.84094957     0.36000
H1800       H  0.75268431  0.48948986  0.83606011     0.41100
H1801       H  0.61152335  0.36494820  0.87465211     0.40700
H1802       H  0.64312855  0.33048705  0.86537376     0.35600
C1803       C  0.94551142  0.46532567  0.23797669    -0.26100
C1804       C  0.94217319  0.49425572  0.22668524    -0.14200
C1805       C  0.97900441  0.52212103  0.22411861     0.36400
C1806       C  0.01893366  0.51769825  0.23198529    -0.25600
C1807       C  0.02543186  0.48369649  0.24199124    -0.14800
C1808       C  0.98501225  0.46115543  0.24596035     0.37500
N1809       N  0.98197704  0.43586598  0.25856828    -0.89100
H1810       H  0.91709582  0.44514778  0.24063235     0.18600
H1811       H  0.04549519  0.54090678  0.23001791     0.18600
N1812       N  0.97621100  0.55486272  0.21334216    -0.88100
H1813       H  0.97124994  0.40397662  0.25601773     0.36000
H1814       H  0.95762388  0.45028971  0.26486670     0.41100
H1815       H  0.98208895  0.58580907  0.21785133     0.40700
H1816       H  0.00161384  0.54858420  0.20620099     0.35600
C1817       C  0.61634071  0.48239678  0.22622583    -0.26100
C1818       C  0.61617242  0.47414196  0.24071529    -0.14200
C1819       C  0.65916589  0.46458845  0.24685168     0.36400
C1820       C  0.69809172  0.46272649  0.23857651    -0.25600
C1821       C  0.69816995  0.47601227  0.22459659    -0.14800
C1822       C  0.65607444  0.48825404  0.21868266     0.37500
N1823       N  0.65204903  0.50953372  0.20531477    -0.89100
H1824       H  0.58588376  0.48723953  0.22052317     0.18600
H1825       H  0.72900874  0.45175082  0.24328676     0.18600
N1826       N  0.66405684  0.45791720  0.26161218    -0.88100
H1827       H  0.63809337  0.48715669  0.19823834     0.36000
H1828       H  0.68254995  0.52046707  0.20157513     0.41100
H1829       H  0.65854769  0.48830824  0.26650004     0.40700
H1830       H  0.69655535  0.44857869  0.26424645     0.35600
C1831       C  0.91268928  0.96953213  0.94369700    -0.26100
C1832       C  0.93526070  0.93147232  0.93931743    -0.14200
C1833       C  0.94144165  0.39112437  0.94991407     0.36400
C1834       C  0.91645700  0.39017149  0.96222175    -0.25600
C1835       C  0.88618517  0.93067888  0.96432945    -0.14800
C1836       C  0.88847234  0.96984845  0.95618195     0.37500
N1837       N  0.86610516  0.00972325  0.96045892    -0.89100
H1838       H  0.91563052  0.99963888  0.93762349     0.18600
H1839       H  0.91581017  0.35998836  0.96832387     0.18600
N1840       N  0.96613598  0.35274514  0.94552106    -0.88100
H1841       H  0.86851075  0.03414839  0.95276846     0.36000
H1842       H  0.88312180  0.02195760  0.96916552     0.41100
H1843       H  0.99994748  0.36039233  0.94611403     0.40700
H1844       H  0.96111340  0.32638008  0.95239351     0.35600
C1845       C  0.65876772  0.89535306  0.94833022    -0.26100
C1846       C  0.66157581  0.93273620  0.93968636    -0.14200
C1847       C  0.69167473  0.96649066  0.94309051     0.36400
C1848       C  0.71774120  0.96295070  0.95524477    -0.25600
C1849       C  0.71448724  0.92594195  0.96412126    -0.14800
C1850       C  0.68501705  0.89144485  0.96048503     0.37500
N1851       N  0.68102951  0.85311700  0.96926949    -0.89100
H1852       H  0.64251578  0.36715796  0.94750002     0.18600
H1853       H  0.74081845  0.98929474  0.95771098     0.18600
N1854       N  0.69505741  0.00484227  0.93438236    -0.88100
H1855       H  0.66624155  0.32666135  0.96639514     0.36000
H1856       H  0.66796328  0.86362555  0.97879883     0.41100
H1857       H  0.72795803  0.00723632  0.93103035     0.40700
H1858       H  0.68793618  0.03272699  0.94044997     0.35600
C1859       C  0.95315554  0.49330294  0.14725835    -0.26100
C1860       C  0.92372231  0.46521974  0.15416274    -0.14200
C1861       C  0.91246986  0.42381615  0.14813760     0.36400
C1862       C  0.93080752  0.41180617  0.13533164    -0.25600
C1863       C  0.96037805  0.43978196  0.12846570    -0.14800
C1864       C  0.97179722  0.48108166  0.13448886     0.37500
N1865       N  0.99397785  0.01960446  0.12687350    -0.89100
H1866       H  0.96061740  0.52553259  0.15162598     0.18600
H1867       H  0.92329964  0.37959145  0.13095423     0.18600
N1868       N  0.88271059  0.39315390  0.15469820    -0.88100
H1869       H  0.02247371  0.02122745  0.13315581     0.36000
H1870       H  0.00418349  0.00951803  0.11699263     0.41100
H1871       H  0.87265363  0.40392648  0.16452976     0.40700
H1872       H  0.85422095  0.39110150  0.14845146     0.35600
C1873       C  0.68467671  0.47409538  0.14817083    -0.26100
C1874       C  0.71723247  0.44615615  0.15388843    -0.14200
C1875       C  0.72803906  0.40605913  0.14695716     0.36400
C1876       C  0.70549648  0.39484185  0.13459268    -0.25600
C1877       C  0.67281916  0.42279175  0.12888329    -0.14800
C1878       C  0.66273634  0.46336744  0.13570630     0.37500
N1879       N  0.62351407  0.00321340  0.12908014    -0.89100
H1880       H  0.66887047  0.01125732  0.15238564     0.18600
H1881       H  0.71285181  0.36355910  0.12955845     0.18600
N1882       N  0.76186642  0.37623717  0.15203787    -0.88100
H1883       H  0.64002841  0.03329209  0.12776632     0.36000
H1884       H  0.61162868  0.99466647  0.11920753     0.41100
H1885       H  0.77642435  0.38756949  0.16126037     0.40700
H1886       H  0.74643361  0.34631535  0.15448742     0.35600
C1887       C  0.92040783  0.88029159  0.04877935    -0.26100
C1888       C  0.94129498  0.91915152  0.05324428    -0.14200
C1889       C  0.93457591  0.95849579  0.04565347     0.36400
C1890       C  0.90763456  0.95828234  0.03360582    -0.25600
C1891       C  0.88775722  0.91897761  0.02877046    -0.14800
C1892       C  0.89407469  0.87970989  0.03663505     0.37500
N1893       N  0.87911451  0.33207431  0.03446957    -0.89100
H1894       H  0.93229227  0.34144831  0.05637987     0.18600
H1895       H  0.90291732  0.98894254  0.02790412     0.18600
N1896       N  0.95583014  0.99851500  0.05002143    -0.88100
H1897       H  0.85911655  0.32117862  0.04265776     0.36000
H1898       H  0.90385851  0.30825955  0.03280913     0.41100
H1899       H  0.93114250  0.02231527  0.05177418     0.40700
H1900       H  0.97570552  0.00963304  0.04183522     0.35600
C1901       C  0.66055985  0.94173335  0.04423478    -0.26100
C1902       C  0.66594043  0.90491178  0.05300557    -0.14200
C1903       C  0.69612875  0.87131796  0.04937598     0.36400
C1904       C  0.72031179  0.87488640  0.03694842    -0.25600
C1905       C  0.71484966  0.91171219  0.02806547    -0.14800
C1906       C  0.68456134  0.94551794  0.03178719     0.37500
N1907       N  0.67769257  0.98317327  0.02284138    -0.89100
H1908       H  0.63659496  0.96712212  0.04699479     0.18600
H1909       H  0.74393449  0.84900613  0.03435197     0.18600
N1910       N  0.70176920  0.83337269  0.05817847    -0.88100
H1911       H  0.65459124  0.00507193  0.02718266     0.36000
H1912       H  0.66368955  0.97167646  0.01352203     0.41100
H1913       H  0.74272935  0.32247284  0.06281082     0.40700
H1914       H  0.70206460  0.29617705  0.05386823     0.35600
N1915       N  0.55804620  0.91709017  0.11043065    -0.36400
N1916       N  0.63339317  0.39238105  0.09243402    -0.57000
N1917       N  0.06207070  0.39746649  0.07130138    -0.36400
N1918       N  0.99425760  0.40988191  0.09186427    -0.57000
C1919       C  0.59325181  0.90613256  0.11851891     0.27200
C1920       C  0.02160096  0.91281173  0.11839606     0.27200
C1921       C  0.59697873  0.38275212  0.06377769     0.27200
C1922       C  0.02502754  0.39181524  0.06339905     0.27200
C1923       C  0.65217062  0.91593565  0.10123163     0.35800
C1924       C  0.65797007  0.39769989  0.08083450     0.35800
C1925       C  0.96457428  0.93468120  0.10101280     0.35800
C1926       C  0.96956299  0.41923068  0.08044012     0.35800
C1927       C  0.57904312  0.89336430  0.13162296    -0.23900
C1928       C  0.03364319  0.89754318  0.13155172    -0.21700
C1929       C  0.58194614  0.36700877  0.05101004    -0.21700
C1930       C  0.03664201  0.37286253  0.05074661    -0.21700
C1931       C  0.69393526  0.92786684  0.09661784    -0.22800
C1932       C  0.70021988  0.41218504  0.08442319    -0.22800
C1933       C  0.92421365  0.95248206  0.09673398    -0.22800
C1934       C  0.93010494  0.43959616  0.08430939    -0.22800
C1935       C  0.63743157  0.91626533  0.11520621    -0.18100
C1936       C  0.97960245  0.93036463  0.11492652    -0.18100
C1937       C  0.98190056  0.40750814  0.06673392    -0.18100
C1938       C  0.64223713  0.39006314  0.06711291    -0.18100
H1939       H  0.59952343  0.88474871  0.14054927     0.14800
H1940       H  0.01226596  0.89262144  0.14044990     0.14800
H1941       H  0.60187267  0.35453665  0.04249228     0.14800
H1942       H  0.01508950  0.36552124  0.04198566     0.14800
H1943       H  0.72164155  0.93927453  0.10288012     0.13100
H1944       H  0.72739986  0.41930986  0.07743834     0.13100
H1945       H  0.89850541  0.96648455  0.10326286     0.13100
H1946       H  0.90326197  0.45037771  0.07753264     0.13100
H1947       H  0.55958444  0.93511224  0.10120316     0.26300
H1948       H  0.06448691  0.41670648  0.08023733     0.26300
O1949       O  0.75791077  0.88630304  0.98122079    -0.74200
O1950       O  0.84706473  0.88401596  0.01010561    -0.74300
O1951       O  0.75835167  0.88025519  0.00982616    -0.74300
O1952       O  0.84679267  0.88949091  0.98151798    -0.74400
O1953       O  0.85038403  0.45867195  0.98560417    -0.74300
O1954       O  0.76110559  0.44762628  0.01363521    -0.74300
O1955       O  0.85002479  0.45137054  0.01414378    -0.74300
O1956       O  0.76189438  0.45547419  0.98512484    -0.74300
Ni1957     Ni  0.80266317  0.88240713  0.99561554     1.25400
Ni1958     Ni  0.80573288  0.45588115  0.99970640     1.25400
C1959       C  0.75014344  0.41969616  0.97897953     0.87900
C1960       C  0.86480053  0.41382996  0.01841405     0.87900
C1961       C  0.74965632  0.40898413  0.01776492     0.87900
C1962       C  0.86484347  0.42387600  0.97946159     0.88100
N1963       N  0.88182133  0.99359928  0.19012336    -0.36400
N1964       N  0.81460131  0.98219451  0.21187181    -0.57000
N1965       N  0.74670960  0.97494424  0.18985078    -0.36400
N1966       N  0.81202772  0.98805718  0.16931750    -0.57000
C1967       C  0.90724805  0.98356356  0.20137677     0.27200
C1968       C  0.90471026  0.98098649  0.17861105     0.27200
C1969       C  0.72666243  0.95852377  0.20127545     0.27200
C1970       C  0.72661422  0.95689790  0.17849430     0.27200
C1971       C  0.85017639  0.99534777  0.21973662     0.35800
C1972       C  0.77678142  0.98827805  0.21950186     0.35800
C1973       C  0.84655057  0.99955102  0.16133709     0.35800
C1974       C  0.77577974  0.98979949  0.16107816     0.35800
C1975       C  0.94707222  0.96493930  0.19694213    -0.21700
C1976       C  0.94528065  0.96301078  0.18257298    -0.21700
C1977       C  0.69372478  0.92910944  0.19716347    -0.21700
C1978       C  0.69366587  0.92816928  0.18275049    -0.21700
C1979       C  0.83483689  0.00966695  0.23257724    -0.22800
C1980       C  0.78871487  0.00586892  0.23236810    -0.22800
C1981       C  0.83192555  0.01098863  0.14805299    -0.22800
C1982       C  0.78683440  0.00479945  0.14789119    -0.22800
C1983       C  0.89608954  0.99276221  0.21546314    -0.18100
C1984       C  0.89009621  0.98670075  0.16465722    -0.18100
C1985       C  0.73628246  0.96809000  0.16449405    -0.18100
C1986       C  0.73262290  0.97565925  0.21493130    -0.18100
H1987       H  0.97446497  0.95353965  0.20339737     0.14800
H1988       H  0.97103596  0.95024865  0.17581680     0.14800
H1989       H  0.67091218  0.91160584  0.20386400     0.14800
H1990       H  0.67127638  0.90942348  0.17617322     0.14800
H1991       H  0.85474604  0.02199220  0.24115990     0.13100
H1992       H  0.76678957  0.01492985  0.24080456     0.13100
H1993       H  0.85211952  0.01872932  0.13907646     0.13100
H1994       H  0.76546258  0.00719168  0.13880062     0.13100
H1995       H  0.85204589  0.01138149  0.19032824     0.26300
H1996       H  0.76867343  0.00155806  0.18992109     0.26300
N1997       N  0.05485120  0.43761041  0.92619589    -0.36400
N1998       N  0.61720933  0.94344965  0.90293529    -0.57000
N1999       N  0.04678326  0.94045422  0.88233811    -0.36400
N2000       N  0.97787208  0.93724802  0.90264993    -0.57000
C2001       C  0.59094029  0.44624009  0.93422794     0.27200
C2002       C  0.01855258  0.44562575  0.93406597     0.27200
C2003       C  0.58196010  0.95295468  0.87467880     0.27200
C2004       C  0.01025003  0.94828444  0.87450053     0.27200
C2005       C  0.64277856  0.93322860  0.91409975     0.35800
C2006       C  0.64153536  0.93429150  0.89149287     0.35800
C2007       C  0.95357958  0.92719026  0.91396041     0.35800
C2008       C  0.95359602  0.92544119  0.89137369     0.35800
C2009       C  0.57745112  0.46029224  0.94729927    -0.21700
C2010       C  0.03180033  0.45997460  0.94719891    -0.21700
C2011       C  0.56758614  0.97014613  0.86199967    -0.21700
C2012       C  0.02212645  0.96721582  0.86189547    -0.21700
C2013       C  0.68425955  0.91875169  0.90975918    -0.22800
C2014       C  0.68338056  0.91921401  0.89535381    -0.22800
C2015       C  0.91282986  0.91003487  0.90988230    -0.22800
C2016       C  0.91301884  0.90854149  0.89548434    -0.22800
C2017       C  0.63551345  0.43722833  0.93054112    -0.18100
C2018       C  0.97428494  0.43492314  0.93034598    -0.18100
C2019       C  0.96779350  0.93189287  0.87753577    -0.18100
C2020       C  0.62609025  0.94089752  0.87772380    -0.18100
H2021       H  0.59836137  0.46864758  0.95612905     0.14800
H2022       H  0.01080277  0.46783572  0.95599403     0.14800
H2023       H  0.58788976  0.98108041  0.85338743     0.14800
H2024       H  0.00044937  0.97566381  0.85323232     0.14800
H2025       H  0.71827142  0.40786340  0.91851903     0.13100
H2026       H  0.71029479  0.90965367  0.88852726     0.13100
H2027       H  0.89248251  0.40026749  0.91897801     0.13100
H2028       H  0.88636019  0.89685351  0.88883383     0.13100
H2029       H  0.05504530  0.42087476  0.91674539     0.26300
H2030       H  0.04821698  0.91982970  0.89100855     0.26300
N2031       N  0.86448919  0.90564727  0.80109471    -0.36400
N2032       N  0.79674326  0.92792493  0.77979350    -0.57000
N2033       N  0.72935342  0.91788622  0.80130192    -0.36400
N2034       N  0.79577495  0.89391257  0.82104576    -0.57000
C2035       C  0.88851094  0.92422244  0.79081277     0.27200
C2036       C  0.88697475  0.91183677  0.81323907     0.27200
C2037       C  0.70964952  0.94175174  0.79107617     0.27200
C2038       C  0.71023981  0.92986382  0.81350743     0.27200
C2039       C  0.83268823  0.91766424  0.77183613     0.35800
C2040       C  0.75933284  0.92209980  0.77189214     0.35800
C2041       C  0.83065159  0.87917579  0.82850501     0.35800
C2042       C  0.75954479  0.88660784  0.82878043     0.35800
C2043       C  0.92711618  0.94213241  0.79643208    -0.21700
C2044       C  0.92592719  0.93460865  0.81064273    -0.21700
C2045       C  0.67829453  0.97008556  0.79688810    -0.21700
C2046       C  0.67833817  0.96217550  0.81106319    -0.21700
C2047       C  0.81815215  0.90498319  0.75871115    -0.22800
C2048       C  0.77190702  0.90659501  0.75886038    -0.22800
C2049       C  0.81637480  0.85942534  0.84073500    -0.22800
C2050       C  0.77107158  0.86433990  0.84095191    -0.22800
C2051       C  0.87806342  0.92104344  0.77642740    -0.18100
C2052       C  0.87338682  0.89584766  0.82641715    -0.18100
C2053       C  0.72010124  0.91046023  0.82658892    -0.18100
C2054       C  0.71516858  0.93300491  0.77664880    -0.18100
H2055       H  0.95357942  0.95843689  0.79084445     0.14800
H2056       H  0.95119125  0.94401057  0.81814543     0.14800
H2057       H  0.65647950  0.99282484  0.79138908     0.14800
H2058       H  0.65698919  0.97793249  0.81865141     0.14800
H2059       H  0.83866244  0.89454222  0.75006793     0.13100
H2060       H  0.75030548  0.89683375  0.75037323     0.13100
H2061       H  0.83680356  0.84732447  0.84926817     0.13100
H2062       H  0.74995717  0.85642817  0.84968906     0.13100
H2063       H  0.83645657  0.88604817  0.79956076     0.26300
H2064       H  0.75079045  0.89112497  0.79971851     0.26300
N2065       N  0.46952422  0.63154662  0.69335967    -0.36400
N2066       N  0.42976581  0.70086116  0.67540388    -0.57000
N2067       N  0.47909413  0.76606677  0.68914773    -0.36400
N2068       N  0.01733812  0.69854796  0.70865631    -0.57000
C2069       C  0.45680247  0.60801421  0.68194419     0.27200
C2070       C  0.49469745  0.60453093  0.70159442     0.27200
C2071       C  0.47147215  0.78642636  0.67668261     0.27200
C2072       C  0.51284713  0.78744145  0.69551137     0.27200
C2073       C  0.40968408  0.66472123  0.67040365     0.35800
C2074       C  0.41382326  0.73552531  0.66814034     0.35800
C2075       C  0.02507181  0.66369796  0.71746381     0.35800
C2076       C  0.02723165  0.73678965  0.71557757     0.35800
C2077       C  0.47196315  0.56511437  0.68311332    -0.21700
C2078       C  0.49390005  0.56220968  0.69568840    -0.21700
C2079       C  0.50072245  0.82133767  0.67518712    -0.21700
C2080       C  0.52657280  0.82223189  0.68712350    -0.21700
C2081       C  0.37800945  0.67677799  0.66050985    -0.22800
C2082       C  0.38046926  0.72188421  0.65910988    -0.22800
C2083       C  0.04222797  0.68033932  0.72986515    -0.22800
C2084       C  0.04157797  0.72607632  0.72890831    -0.22800
C2085       C  0.43132182  0.62372019  0.67048776    -0.18100
C2086       C  0.01789274  0.61741174  0.71417164    -0.18100
C2087       C  0.02649946  0.78055410  0.70955153    -0.18100
C2088       C  0.43747802  0.77521002  0.66697752    -0.18100
H2089       H  0.46609006  0.53812957  0.67591681     0.14800
H2090       H  0.50699711  0.53143054  0.69964692     0.14800
H2091       H  0.50247024  0.84444284  0.66657688     0.14800
H2092       H  0.55192731  0.84638561  0.68955071     0.14800
H2093       H  0.35915371  0.65488895  0.65380787     0.13100
H2094       H  0.36344749  0.74139040  0.65123878     0.13100
H2095       H  0.05444152  0.66196155  0.73876524     0.13100
H2096       H  0.05186205  0.74858043  0.73704462     0.13100
H2097       H  0.46002289  0.66376242  0.69564479     0.26300
H2098       H  0.45918242  0.74270190  0.69402570     0.26300
N2099       N  0.43855582  0.95275489  0.61171601    -0.36400
N2100       N  0.44685275  0.02398455  0.59109622    -0.57000
N2101       N  0.42157267  0.96196653  0.56991172    -0.36400
N2102       N  0.41537831  0.89051225  0.59083443    -0.57000
C2103       C  0.45995953  0.98420107  0.61906450     0.27200
C2104       C  0.44356262  0.91451022  0.61891600     0.27200
C2105       C  0.43584492  0.99627392  0.56199830     0.27200
C2106       C  0.42247548  0.92549086  0.56175201     0.27200
C2107       C  0.44967526  0.56493773  0.60260227     0.35800
C2108       C  0.44519257  0.56735123  0.58004971     0.35800
C2109       C  0.40824696  0.86406471  0.60197852     0.35800
C2110       C  0.40151135  0.86824959  0.57946793     0.35800
C2111       C  0.47883235  0.96578544  0.63099258    -0.21700
C2112       C  0.46862518  0.92182003  0.63086974    -0.21700
C2113       C  0.44506109  0.98163404  0.54864172    -0.21700
C2114       C  0.43685773  0.93707281  0.54848410    -0.21700
C2115       C  0.42683032  0.60351623  0.59931420    -0.22800
C2116       C  0.42444635  0.60532879  0.58492518    -0.22800
C2117       C  0.38935731  0.82461378  0.59771216    -0.22800
C2118       C  0.38536662  0.82712539  0.58338054    -0.22800
C2119       C  0.46219454  0.55085277  0.61609392    -0.18100
C2120       C  0.42343655  0.87380994  0.61559835    -0.18100
C2121       C  0.40905445  0.88224299  0.56561838    -0.18100
C2122       C  0.45155983  0.55590057  0.56593071    -0.18100
H2123       H  0.49719342  0.98240443  0.63917252     0.14800
H2124       H  0.47787321  0.89817550  0.63887366     0.14800
H2125       H  0.45678724  0.00099130  0.53991248     0.14800
H2126       H  0.44084855  0.91574582  0.53950882     0.14800
H2127       H  0.41410924  0.62806293  0.60649665     0.13100
H2128       H  0.40911865  0.63135066  0.57877064     0.13100
H2129       H  0.38122352  0.79639544  0.60415625     0.13100
H2130       H  0.37335750  0.80116897  0.57657497     0.13100
H2131       H  0.41662682  0.95864027  0.60349126     0.26300
H2132       H  0.40788229  0.96399418  0.57982092     0.26300
O2133       O  0.39312377  0.75987791  0.48111300    -0.74200
O2134       O  0.39746482  0.67351797  0.51060358    -0.74300
O2135       O  0.38641165  0.76118141  0.50973521    -0.74300
O2136       O  0.40405616  0.67167653  0.48201042    -0.74400
O2137       O  0.47727093  0.68026316  0.48396133    -0.74300
O2138       O  0.45976239  0.77004081  0.51124302    -0.74300
O2139       O  0.47065716  0.68286043  0.51226347    -0.74300
O2140       O  0.46657938  0.76779963  0.48279061    -0.74300
Ni2141     Ni  0.39257449  0.71628941  0.49577203     1.25400
Ni2142     Ni  0.47108090  0.72562940  0.49760367     1.25400
C2143       C  0.42959183  0.77644627  0.47667156     0.87900
C2144       C  0.43464658  0.66567672  0.51677000     0.87900
C2145       C  0.42051040  0.77807897  0.51571120     0.87900
C2146       C  0.44363160  0.66220064  0.47808673     0.88100
C2147       C  0.04434292  0.94676475  0.74325081    -0.02300
N2148       N  0.44520453  0.97082192  0.42580473    -0.36400
N2149       N  0.46321450  0.04312957  0.40648698    -0.57000
N2150       N  0.47363109  0.97824540  0.38510741    -0.36400
N2151       N  0.45740537  0.90598224  0.40401619    -0.57000
C2152       C  0.45315251  0.00488426  0.43461425     0.27200
C2153       C  0.44953012  0.93310777  0.43333437     0.27200
C2154       C  0.48982791  0.01478382  0.37886915     0.27200
C2155       C  0.48647229  0.94343696  0.37729264     0.27200
C2156       C  0.48210264  0.56169091  0.41744511     0.35800
C2157       C  0.49942869  0.56278247  0.39556961     0.35800
C2158       C  0.44320714  0.87842148  0.41411932     0.35800
C2159       C  0.45637755  0.88300937  0.39194603     0.35800
C2160       C  0.46243907  0.98863874  0.44785706    -0.21700
C2161       C  0.46017289  0.94341320  0.44704930    -0.21700
C2162       C  0.51404304  0.00308150  0.36718492    -0.21700
C2163       C  0.51156044  0.95814206  0.36608788    -0.21700
C2164       C  0.47293467  0.60415831  0.41266831    -0.22800
C2165       C  0.48393860  0.60481527  0.39871292    -0.22800
C2166       C  0.43388225  0.83719203  0.40850684    -0.22800
C2167       C  0.44213486  0.84015263  0.39438837    -0.22800
C2168       C  0.47817087  0.54681262  0.43132398    -0.18100
C2169       C  0.44173841  0.88967897  0.42841184    -0.18100
C2170       C  0.47153619  0.89968998  0.37906780    -0.18100
C2171       C  0.51538968  0.54845185  0.38253500    -0.18100
H2172       H  0.46969287  0.00741607  0.45720179     0.14800
H2173       H  0.46554663  0.92070854  0.45564007     0.14800
H2174       H  0.52983803  0.02488363  0.35976533     0.14800
H2175       H  0.52538420  0.93914911  0.35760013     0.14800
H2176       H  0.46011190  0.63175709  0.41864097     0.13100
H2177       H  0.48120669  0.63288687  0.39173508     0.13100
H2178       H  0.42295362  0.80798463  0.41403216     0.13100
H2179       H  0.43903890  0.81363761  0.38686048     0.13100
H2180       H  0.43249190  0.97342637  0.41573935     0.26300
H2181       H  0.44898275  0.97767248  0.39264640     0.26300
N2182       N  0.53899910  0.66087249  0.30696539    -0.36400
N2183       N  0.55014355  0.72866373  0.28523509    -0.57000
N2184       N  0.51732359  0.79313523  0.30500921    -0.36400
N2185       N  0.50064359  0.72374438  0.32546904    -0.57000
C2186       C  0.56296040  0.63887799  0.29734491     0.27200
C2187       C  0.54407556  0.63877435  0.31921209     0.27200
C2188       C  0.52099185  0.81939997  0.29359267     0.27200
C2189       C  0.49399298  0.81618577  0.31470361     0.27200
C2190       C  0.06097269  0.69210668  0.27760475     0.35800
C2191       C  0.05817966  0.76554632  0.27742824     0.35800
C2192       C  0.49876231  0.68845699  0.33400335     0.35800
C2193       C  0.48231311  0.75742760  0.33252987     0.35800
C2194       C  0.58371699  0.60258223  0.30351047    -0.21700
C2195       C  0.57189361  0.60264538  0.31734624    -0.21700
C2196       C  0.49807462  0.85880656  0.29604986    -0.21700
C2197       C  0.48229434  0.85719802  0.30946315    -0.21700
C2198       C  0.07575318  0.70591288  0.26466127    -0.22800
C2199       C  0.07582994  0.75189025  0.26477114    -0.22800
C2200       C  0.47720713  0.69927446  0.34629530    -0.22800
C2201       C  0.46699704  0.74312269  0.34539500    -0.22800
C2202       C  0.06199439  0.64734148  0.28285150    -0.18100
C2203       C  0.52195503  0.64876037  0.33178035    -0.18100
C2204       C  0.48365859  0.80185009  0.32832423    -0.18100
C2205       C  0.04706861  0.81053225  0.28143074    -0.18100
H2206       H  0.60431350  0.57797840  0.29843897     0.14800
H2207       H  0.58164703  0.57822390  0.32505694     0.14800
H2208       H  0.49362327  0.88644853  0.28898942     0.14800
H2209       H  0.46354403  0.88291898  0.31468524     0.14800
H2210       H  0.08749721  0.68550025  0.25619121     0.13100
H2211       H  0.08762259  0.77229622  0.25633749     0.13100
H2212       H  0.47171439  0.67856990  0.35533305     0.13100
H2213       H  0.45171207  0.76255529  0.35355951     0.13100
H2214       H  0.51590647  0.68557554  0.30465439     0.26300
H2215       H  0.53458651  0.76381717  0.30681110     0.26300
C2216       C  0.06473026  0.98025559  0.24957291    -0.02300
C2217       C  0.57386566  0.93194253  0.27226335    -0.26100
C2218       C  0.06458848  0.93489267  0.25783832    -0.14200
C2219       C  0.05705742  0.89393402  0.25078860     0.36400
C2220       C  0.05108824  0.85409389  0.25837411    -0.25600
C2221       C  0.06015013  0.85132715  0.27277038    -0.14800
C2222       C  0.57627441  0.89078946  0.27928543     0.37500
N2223       N  0.59588594  0.89038828  0.29300469    -0.89100
H2224       H  0.58285031  0.96139408  0.27801689     0.18600
H2225       H  0.03784454  0.82577157  0.25289549     0.18600
N2226       N  0.05192686  0.89324306  0.23592511    -0.88100
H2227       H  0.57513090  0.90807000  0.29972512     0.36000
H2228       H  0.59959175  0.85825220  0.29686708     0.41100
H2229       H  0.02051561  0.88056757  0.23352639     0.40700
H2230       H  0.07574872  0.87153001  0.23188620     0.35600
C2231       C  0.60043607  0.59863638  0.26484853    -0.26100
C2232       C  0.06444565  0.60633526  0.27369286    -0.14200
C2233       C  0.03320407  0.57147160  0.27521911     0.36400
C2234       C  0.03979300  0.53041285  0.26859947    -0.25600
C2235       C  0.06646398  0.02350882  0.25912824    -0.14800
C2236       C  0.60472558  0.55898625  0.25706741     0.37500
N2237       N  0.63897333  0.55796639  0.24678951    -0.89100
H2238       H  0.62564230  0.62384966  0.26378317     0.18600
H2239       H  0.00435988  0.00688763  0.26897651     0.18600
N2240       N  0.99316063  0.57711381  0.28308681    -0.88100
H2241       H  0.66951391  0.56334615  0.25175788     0.36000
H2242       H  0.63335379  0.58386540  0.23974584     0.41100
H2243       H  0.97663585  0.60545200  0.27948910     0.40700
H2244       H  0.00074911  0.58101162  0.29363785     0.35600
C2245       C  0.51383996  0.85546027  0.36198809    -0.26100
C2246       C  0.47263824  0.87126678  0.36655007    -0.14200
C2247       C  0.43521214  0.86856465  0.35769711     0.36400
C2248       C  0.43937897  0.84930739  0.34443839    -0.25600
C2249       C  0.48090047  0.83417285  0.33983148    -0.14800
C2250       C  0.51846012  0.83828856  0.34856545     0.37500
N2251       N  0.56116739  0.82343310  0.34389817    -0.89100
H2252       H  0.54297852  0.85887338  0.36859929     0.18600
H2253       H  0.41012364  0.84465600  0.33796905     0.18600
N2254       N  0.39312652  0.88552161  0.36217807    -0.88100
H2255       H  0.57268527  0.79914245  0.35081764     0.36000
H2256       H  0.58298496  0.85024277  0.34437771     0.41100
H2257       H  0.37021855  0.85961696  0.36188682     0.40700
H2258       H  0.88272348  0.90959612  0.35501850     0.35600
C2259       C  0.55556127  0.62650762  0.35434363    -0.26100
C2260       C  0.52418005  0.61791457  0.34378483    -0.14200
C2261       C  0.48873226  0.58869346  0.34644768     0.36400
C2262       C  0.48493164  0.56977142  0.35967002    -0.25600
C2263       C  0.51619439  0.57828529  0.37026569    -0.14800
C2264       C  0.55229586  0.60672793  0.36752772     0.37500
N2265       N  0.58602628  0.61623982  0.37776369    -0.89100
H2266       H  0.58193160  0.65005170  0.35245069     0.18600
H2267       H  0.95815338  0.54664993  0.36156073     0.18600
N2268       N  0.95588156  0.57783414  0.33605360    -0.88100
H2269       H  0.61607273  0.60341505  0.37406687     0.36000
H2270       H  0.53855735  0.11447389  0.38762313     0.41100
H2271       H  0.96311203  0.59198048  0.32640529     0.40700
H2272       H  0.92549069  0.59110800  0.33930484     0.35600
C2273       C  0.39687577  0.85629775  0.44748085    -0.26100
C2274       C  0.43513996  0.85479085  0.43915185    -0.14200
C2275       C  0.47025446  0.82628993  0.44287372     0.36400
C2276       C  0.46752476  0.80112962  0.45512098    -0.25600
C2277       C  0.43005617  0.80373758  0.46380751    -0.14800
C2278       C  0.39391428  0.83103599  0.45979443     0.37500
N2279       N  0.35517293  0.83430128  0.46844462    -0.89100
H2280       H  0.37023528  0.87898057  0.44470477     0.18600
H2281       H  0.49513031  0.77960589  0.45789238     0.18600
N2282       N  0.50949709  0.82422205  0.43450976    -0.88100
H2283       H  0.33164003  0.85565525  0.46395529     0.36000
H2284       H  0.36492785  0.84871832  0.47788007     0.41100
H2285       H  0.53663425  0.83298375  0.44076341     0.40700
H2286       H  0.51397539  0.79140207  0.43132429     0.35600
C2287       C  0.49330796  0.63213560  0.45976518    -0.26100
C2288       C  0.45125271  0.63193227  0.46614505    -0.14200
C2289       C  0.41744196  0.60458087  0.46058644     0.36400
C2290       C  0.42646759  0.57867501  0.44875719    -0.25600
C2291       C  0.46850698  0.57907400  0.44253102    -0.14800
C2292       C  0.50234648  0.60577385  0.44809423     0.37500
N2293       N  0.54621564  0.60455679  0.44222317    -0.89100
H2294       H  0.51944936  0.65304634  0.46386145     0.18600
H2295       H  0.40105015  0.55702720  0.44457180     0.18600
N2296       N  0.37448988  0.60246418  0.46704762    -0.88100
H2297       H  0.56780814  0.62478664  0.44791322     0.36000
H2298       H  0.52549604  0.11022631  0.43061923     0.41100
H2299       H  0.37889292  0.58828164  0.47691273     0.40700
H2300       H  0.85341560  0.58134793  0.46148499     0.35600
C2301       C  0.37230385  0.84625556  0.54545586    -0.26100
C2302       C  0.40925961  0.84874003  0.55439738    -0.14200
C2303       C  0.44921746  0.82685328  0.55079457     0.36400
C2304       C  0.45184143  0.80504234  0.53800669    -0.25600
C2305       C  0.41550361  0.80377735  0.52873626    -0.14800
C2306       C  0.37496765  0.82365667  0.53270160     0.37500
N2307       N  0.33691771  0.82223073  0.52367341    -0.89100
H2308       H  0.34191585  0.86365789  0.54811148     0.18600
H2309       H  0.48285158  0.78877141  0.53535363     0.18600
N2310       N  0.48841801  0.82788506  0.55947325    -0.88100
H2311       H  0.32737291  0.85478240  0.52138528     0.36000
H2312       H  0.31098108  0.80725444  0.52910919     0.41100
H2313       H  0.48313860  0.84506976  0.56874946     0.40700
H2314       H  0.49586568  0.79525939  0.56233272     0.35600
C2315       C  0.40624662  0.58582522  0.54634669    -0.26100
C2316       C  0.44432713  0.58945138  0.55479951    -0.14200
C2317       C  0.47813176  0.61938171  0.55100327     0.36400
C2318       C  0.47379084  0.64339127  0.53858635    -0.25600
C2319       C  0.43655702  0.63867665  0.52975523    -0.14800
C2320       C  0.40187345  0.61012037  0.53386831     0.37500
N2321       N  0.36295688  0.60490682  0.52526681    -0.89100
H2322       H  0.38071387  0.56238427  0.54921959     0.18600
H2323       H  0.50025587  0.66590456  0.53581350     0.18600
N2324       N  0.51811464  0.62500119  0.55910767    -0.88100
H2325       H  0.84037808  0.58343907  0.52996801     0.36000
H2326       H  0.37292748  0.58979062  0.51598497     0.41100
H2327       H  0.51842552  0.60525465  0.56802616     0.40700
H2328       H  0.51873585  0.65782758  0.56256635     0.35600
C2329       C  0.39168179  0.85012530  0.63812213    -0.26100
C2330       C  0.42118756  0.84081702  0.62716179    -0.14200
C2331       C  0.45554881  0.80929936  0.62937439     0.36400
C2332       C  0.46025402  0.78936266  0.64253095    -0.25600
C2333       C  0.43214489  0.80038209  0.65366375    -0.14800
C2334       C  0.39692830  0.83076796  0.65135342     0.37500
N2335       N  0.86645889  0.84325690  0.66215433    -0.89100
H2336       H  0.86613993  0.87508404  0.63662709     0.18600
H2337       H  0.48668492  0.76538952  0.64416592     0.18600
N2338       N  0.48772224  0.79855767  0.61885284    -0.88100
H2339       H  0.87044468  0.87713739  0.66397226     0.36000
H2340       H  0.87385133  0.82736379  0.67155844     0.41100
H2341       H  0.48150739  0.81552393  0.60956134     0.40700
H2342       H  0.48442732  0.76489909  0.61656550     0.35600
C2343       C  0.40970800  0.57353338  0.65097749    -0.26100
C2344       C  0.43947315  0.60453765  0.65646266    -0.14200
C2345       C  0.47305723  0.62234542  0.64774342     0.36400
C2346       C  0.47668022  0.60765888  0.63397555    -0.25600
C2347       C  0.44814625  0.57532336  0.62869017    -0.14800
C2348       C  0.41368117  0.55859790  0.63720301     0.37500
N2349       N  0.88730708  0.05559938  0.63574484    -0.89100
H2350       H  0.88303024  0.56117923  0.65741592     0.18600
H2351       H  0.50380826  0.61954972  0.62761140     0.18600
N2352       N  0.50472626  0.65458484  0.65252767    -0.88100
H2353       H  0.87892246  0.03034459  0.64269492     0.36000
H2354       H  0.88216369  0.04332541  0.62569401     0.41100
H2355       H  0.50166878  0.66149721  0.66312282     0.40700
H2356       H  0.49838561  0.68405146  0.64713455     0.35600
C2357       C  0.00350492  0.85671091  0.71701270    -0.26100
C2358       C  0.03534029  0.82249090  0.71796138    -0.14200
C2359       C  0.57453357  0.83158672  0.72573237     0.36400
C2360       C  0.57761170  0.87116515  0.73363861    -0.25600
C2361       C  0.04495103  0.90552845  0.73294785    -0.14800
C2362       C  0.00895947  0.89794077  0.72359776     0.37500
N2363       N  0.97703746  0.93201968  0.72076367    -0.89100
H2364       H  0.97391139  0.85185602  0.71070261     0.18600
H2365       H  0.60656914  0.87430428  0.74023760     0.18600
N2366       N  0.61300334  0.80322360  0.72525986    -0.88100
H2367       H  0.94556854  0.91994596  0.72328312     0.36000
H2368       H  0.97732855  0.93855870  0.71005327     0.41100
H2369       H  0.60871637  0.77710600  0.71828805     0.40700
H2370       H  0.61824097  0.78997212  0.73521789     0.35600
C2371       C  0.03539336  0.53640087  0.74537241    -0.26100
C2372       C  0.04753052  0.99351768  0.73575749    -0.14200
C2373       C  0.56263666  0.00024459  0.72186862     0.36400
C2374       C  0.56193315  0.54590665  0.71808549    -0.25600
C2375       C  0.03563128  0.58025905  0.72371847    -0.14800
C2376       C  0.02305069  0.57531612  0.73787353     0.37500
N2377       N  0.99505557  0.60788721  0.74438333    -0.89100
H2378       H  0.02687846  0.53400350  0.75630808     0.18600
H2379       H  0.57604019  0.55008143  0.70779741     0.18600
N2380       N  0.57779781  0.96405484  0.71348355    -0.88100
H2381       H  0.98815958  0.59897735  0.75467765     0.36000
H2382       H  0.96467546  0.60832812  0.73902591     0.41100
H2383       H  0.61079753  0.96999193  0.71069175     0.40700
H2384       H  0.55870900  0.96340003  0.70434338     0.35600
C2385       C  0.92028274  0.96061237  0.75764722    -0.26100
C2386       C  0.91647736  0.92378579  0.76633742    -0.14200
C2387       C  0.95198631  0.89278170  0.76638961     0.36400
C2388       C  0.99089097  0.90091218  0.75864167    -0.25600
C2389       C  0.99781938  0.94067310  0.75108171    -0.14800
C2390       C  0.95889561  0.96863772  0.74969821     0.37500
N2391       N  0.95573598  0.00331251  0.73954844    -0.89100
H2392       H  0.89268311  0.98373702  0.75696296     0.18600
H2393       H  0.01710827  0.87620209  0.75896808     0.18600
N2394       N  0.94942596  0.85232876  0.77414759    -0.88100
H2395       H  0.94798979  0.03275898  0.74474974     0.36000
H2396       H  0.92913737  0.99645879  0.73283207     0.41100
H2397       H  0.92068437  0.83558965  0.77103304     0.40700
H2398       H  0.94698312  0.85961226  0.78474984     0.35600
C2399       C  0.63154178  0.92342817  0.77360279    -0.26100
C2400       C  0.67286760  0.93460414  0.76753374    -0.14200
C2401       C  0.67073093  0.95256492  0.75395689     0.36400
C2402       C  0.62967914  0.95430204  0.74663328    -0.25600
C2403       C  0.58777751  0.94531119  0.75294197    -0.14800
C2404       C  0.59023197  0.93446272  0.76744574     0.37500
N2405       N  0.55482500  0.94267913  0.77706103    -0.89100
H2406       H  0.63085140  0.91053933  0.78413705     0.18600
H2407       H  0.63091945  0.96442119  0.73586223     0.18600
N2408       N  0.70926318  0.97156948  0.74770010    -0.88100
H2409       H  0.54030799  0.91291063  0.78021018     0.36000
H2410       H  0.53216368  0.96617415  0.77344468     0.41100
H2411       H  0.70256704  0.00503479  0.74579962     0.40700
H2412       H  0.71423034  0.95623489  0.73805416     0.35600
C2413       C  0.95450892  0.88535742  0.85662360    -0.26100
C2414       C  0.93966548  0.91962323  0.86541368    -0.14200
C2415       C  0.90375101  0.94634664  0.86119523     0.36400
C2416       C  0.88400373  0.93930602  0.84811479    -0.25600
C2417       C  0.89944663  0.90563681  0.83920759    -0.14800
C2418       C  0.93437177  0.87798009  0.84360940     0.37500
N2419       N  0.94892514  0.84214928  0.83497419    -0.89100
H2420       H  0.98260295  0.86499682  0.85977018     0.18600
H2421       H  0.85599835  0.95975110  0.84494090     0.18600
N2422       N  0.88798273  0.98114634  0.87003830    -0.88100
H2423       H  0.98272229  0.84651195  0.83294453     0.36000
H2424       H  0.94540613  0.81275577  0.84062264     0.41100
H2425       H  0.89027402  0.01098467  0.86456221     0.40700
H2426       H  0.85440968  0.97534868  0.87208217     0.35600
C2427       C  0.68115160  0.96415941  0.86015636    -0.26100
C2428       C  0.65432095  0.93061126  0.86555926    -0.14200
C2429       C  0.64700425  0.89164319  0.85764983     0.36400
C2430       C  0.66621489  0.88768101  0.84447000    -0.25600
C2431       C  0.69342080  0.92099924  0.83910125    -0.14800
C2432       C  0.70101752  0.95986059  0.84705116     0.37500
N2433       N  0.72892368  0.99528264  0.84230683    -0.89100
H2434       H  0.69315945  0.49601062  0.86906085     0.18600
H2435       H  0.66129180  0.85748783  0.83855898     0.18600
N2436       N  0.61977446  0.85584602  0.86254112    -0.88100
H2437       H  0.71852088  0.52489434  0.84418272     0.36000
H2438       H  0.74306035  0.98851131  0.83264158     0.41100
H2439       H  0.60813289  0.86154402  0.87261098     0.40700
H2440       H  0.63996106  0.82762908  0.86320882     0.35600
C2441       C  0.93857320  0.96518872  0.23665399    -0.26100
C2442       C  0.93485240  0.99562849  0.22576043    -0.14200
C2443       C  0.97105386  0.02477476  0.22378811     0.36400
C2444       C  0.01069397  0.02040674  0.23184537    -0.25600
C2445       C  0.01779996  0.98520279  0.24141853    -0.14800
C2446       C  0.97778239  0.96104353  0.24481955     0.37500
N2447       N  0.97455303  0.93447559  0.25715405    -0.89100
H2448       H  0.91055427  0.94399225  0.23891027     0.18600
H2449       H  0.03655203  0.04477228  0.23039806     0.18600
N2450       N  0.96787565  0.05892436  0.21346580    -0.88100
H2451       H  0.96471522  0.90261879  0.25423443     0.36000
H2452       H  0.94952243  0.94775647  0.26343933     0.41100
H2453       H  0.97260103  0.08935815  0.21843458     0.40700
H2454       H  0.99382805  0.05439016  0.20639236     0.35600
C2455       C  0.60908308  0.98786600  0.22591016    -0.26100
C2456       C  0.60865065  0.97671407  0.24022708    -0.14200
C2457       C  0.65155042  0.96493760  0.24608125     0.36400
C2458       C  0.69041039  0.96369802  0.23770270    -0.25600
C2459       C  0.69067535  0.97926759  0.22394163    -0.14800
C2460       C  0.64887242  0.99374790  0.21837062     0.37500
N2461       N  0.64527504  0.01704038  0.20532652    -0.89100
H2462       H  0.57886660  0.99464655  0.22030688     0.18600
H2463       H  0.72115111  0.95122833  0.24215720     0.18600
N2464       N  0.65644778  0.95517157  0.26067161    -0.88100
H2465       H  0.63038651  0.99614514  0.19798892     0.36000
H2466       H  0.67608531  0.02728582  0.20163731     0.41100
H2467       H  0.65129607  0.98454460  0.26617622     0.40700
H2468       H  0.68883915  0.94491375  0.26308521     0.35600
C2469       C  0.91782616  0.46720621  0.94611878    -0.26100
C2470       C  0.94225242  0.43012734  0.94189407    -0.14200
C2471       C  0.93257679  0.89230163  0.94719232     0.36400
C2472       C  0.90774649  0.89215825  0.95953680    -0.25600
C2473       C  0.89294694  0.42774815  0.96683277    -0.14800
C2474       C  0.89341366  0.46672141  0.95856143     0.37500
N2475       N  0.86882809  0.50550069  0.96264162    -0.89100
H2476       H  0.91932237  0.49721238  0.93993892     0.18600
H2477       H  0.90571725  0.86181734  0.96552239     0.18600
N2478       N  0.95531330  0.85294443  0.94263019    -0.88100
H2479       H  0.86996860  0.52968425  0.95484382     0.36000
H2480       H  0.88504766  0.51904521  0.97130265     0.41100
H2481       H  0.98946998  0.85899893  0.94315956     0.40700
H2482       H  0.94919082  0.82664522  0.94943514     0.35600
C2483       C  0.66590020  0.39285715  0.95033217    -0.26100
C2484       C  0.66826099  0.43108051  0.94205868    -0.14200
C2485       C  0.69809206  0.46477960  0.94572257     0.36400
C2486       C  0.72422251  0.46042019  0.95782647    -0.25600
C2487       C  0.72129785  0.42261772  0.96637453    -0.14800
C2488       C  0.69224678  0.38810427  0.96242751     0.37500
N2489       N  0.68876589  0.34889639  0.97084211    -0.89100
H2490       H  0.63511668  0.86965198  0.94573192     0.18600
H2491       H  0.74705405  0.48676014  0.96051697     0.18600
N2492       N  0.70112019  0.50387408  0.93733261    -0.88100
H2493       H  0.65819112  0.83077991  0.96503979     0.36000
H2494       H  0.67554666  0.35830668  0.98046235     0.41100
H2495       H  0.73398120  0.50682055  0.93398861     0.40700
H2496       H  0.69379695  0.53118501  0.94363041     0.35600
C2497       C  0.94567226  0.99907522  0.14608744    -0.26100
C2498       C  0.91681975  0.96992796  0.15281554    -0.14200
C2499       C  0.90614494  0.92892871  0.14641291     0.36400
C2500       C  0.92417303  0.91851505  0.13340837    -0.25600
C2501       C  0.95311235  0.94757233  0.12670499    -0.14800
C2502       C  0.96421468  0.98834240  0.13315150     0.37500
N2503       N  0.00191809  0.51141316  0.12793354    -0.89100
H2504       H  0.95275074  0.03099864  0.15073213     0.18600
H2505       H  0.91706561  0.88659514  0.12875888     0.18600
N2506       N  0.87730504  0.89705154  0.15280360    -0.88100
H2507       H  0.03032944  0.51346858  0.13423752     0.36000
H2508       H  0.01219139  0.50022726  0.11817717     0.41100
H2509       H  0.86767586  0.90662127  0.16280090     0.40700
H2510       H  0.84847992  0.89512785  0.14670364     0.35600
C2511       C  0.67646741  0.98055482  0.14703256    -0.26100
C2512       C  0.70857653  0.95185646  0.15264449    -0.14200
C2513       C  0.71979541  0.91266572  0.14526087     0.36400
C2514       C  0.69819707  0.90312542  0.13258091    -0.25600
C2515       C  0.66600993  0.93184440  0.12697538    -0.14800
C2516       C  0.65548076  0.97150327  0.13426016     0.37500
N2517       N  0.63036221  0.49438533  0.13036034    -0.89100
H2518       H  0.67729864  0.50537428  0.15321651     0.18600
H2519       H  0.70579366  0.87243724  0.12723027     0.18600
N2520       N  0.75320915  0.88213557  0.15019206    -0.88100
H2521       H  0.64675026  0.52425223  0.12852165     0.36000
H2522       H  0.61767256  0.48456943  0.12070880     0.41100
H2523       H  0.76687889  0.89209142  0.15970289     0.40700
H2524       H  0.73758964  0.85188674  0.15206576     0.35600
C2525       C  0.92707507  0.37215901  0.05073874    -0.26100
C2526       C  0.94856957  0.41063180  0.05523907    -0.14200
C2527       C  0.94199105  0.45032872  0.04782690     0.36400
C2528       C  0.91456947  0.45084278  0.03589738    -0.25600
C2529       C  0.89409465  0.41192372  0.03101218    -0.14800
C2530       C  0.90021446  0.37231403  0.03871435     0.37500
N2531       N  0.87375960  0.83903714  0.03242418    -0.89100
H2532       H  0.92582376  0.84980804  0.05452386     0.18600
H2533       H  0.90998204  0.48174259  0.03031538     0.18600
N2534       N  0.96384616  0.48995731  0.05225699    -0.88100
H2535       H  0.85353927  0.82811383  0.04055367     0.36000
H2536       H  0.89891946  0.81552717  0.03095070     0.41100
H2537       H  0.93948955  0.51394076  0.05419958     0.40700
H2538       H  0.98349563  0.50117981  0.04403029     0.35600
C2539       C  0.66695863  0.43295022  0.04661569    -0.26100
C2540       C  0.67269931  0.39561510  0.05514495    -0.14200
C2541       C  0.70312865  0.36250467  0.05130531     0.36400
C2542       C  0.72710814  0.36699659  0.03887812    -0.25600
C2543       C  0.72120596  0.40427901  0.03021531    -0.14800
C2544       C  0.69074486  0.43765010  0.03416597     0.37500
N2545       N  0.68347423  0.47576734  0.02544744    -0.89100
H2546       H  0.64285207  0.45799522  0.04955868     0.18600
H2547       H  0.75092986  0.34148192  0.03611148     0.18600
N2548       N  0.70923543  0.32413748  0.05989482    -0.88100
H2549       H  0.66027279  0.49723751  0.02994657     0.36000
H2550       H  0.66941710  0.46470702  0.01608435     0.41100
H2551       H  0.73521072  0.83155443  0.06114530     0.40700
H2552       H  0.69440747  0.80515493  0.05229564     0.35600
loop_ 
_geom_bond_atom_site_label_1 
_geom_bond_atom_site_label_2 
_geom_bond_distance 
_geom_bond_site_symmetry_2 
_ccdc_geom_bond_type 
N1           H33   1.040       .  S
N1            C5   1.349       .  A
N1         C1282   1.346       .  A
N2           C10   1.349       .  A
N2          C647   1.354       .  A
N3           H34   1.038       .  S
N3            C8   1.356       .  A
N3         C1283   1.352       .  A
N4           C12   1.349       .  A
N4          C649   1.349       .  A
C5           C13   1.385       .  A
C5           C21   1.404       .  A
C6         N1277   1.346       .  A
C6           C22   1.406       .  A
C6           C14   1.389       .  A
C7         N1279   1.352       .  A
C7           C15   1.388       .  A
C7           C24   1.416       .  A
C8           C23   1.418       .  A
C8           C16   1.388       .  A
C9          N640   1.354       .  A
C9           C21   1.413       .  A
C9           C17   1.384       .  A
C10          C24   1.416       .  A
C10          C18   1.388       .  A
C11         N642   1.348       .  A
C11          C19   1.385       .  A
C11          C22   1.410       .  A
C12          C20   1.387       .  A
C12          C23   1.414       .  A
C13        C1290   1.372       .  A
C13          H25   1.083       .  S
C14        C1289   1.372       .  A
C14          H26   1.082       .  S
C15        C1292   1.373       .  A
C15          H27   1.083       .  S
C16        C1291   1.373       .  A
C16          H28   1.082       .  S
C17         C656   1.381       .  A
C17          H29   1.082       .  S
C18         C655   1.382       .  A
C18          H30   1.082       .  S
C19         C658   1.381       .  A
C19          H31   1.082       .  S
C20         C657   1.382       .  A
C20          H32   1.082       .  S
C21         C601   1.490       .  S
C22         C587   1.476       .  S
C23         C612   1.490       .  S
C24         C626   1.484       .  S
O35         Ni43   1.924       .  S
O35         C683   1.283       .  A
O36         Ni43   1.921   1_554  S
O36         C684   1.283       .  A
O37         Ni43   1.912   1_554  S
O37         C685   1.280       .  A
O38         Ni43   1.912       .  S
O38         C686   1.281       .  A
O39         Ni44   1.914       .  S
O39          C48   1.281       .  A
O40         Ni44   1.917   1_554  S
O40          C47   1.282       .  A
O41         Ni44   1.921   1_554  S
O41          C46   1.282       .  A
O42         Ni44   1.918       .  S
O42          C45   1.282       .  A
Ni43       Ni682   2.384       .  S
Ni44       Ni681   2.384       .  S
C45         C573   1.488       .  S
C45         O673   1.283       .  A
C46         C615   1.494       .  S
C46         O674   1.283       .  A
C47         C629   1.481       .  S
C47         O675   1.280       .  A
C48         C559   1.487       .  S
C48         O676   1.281       .  A
N49          H81   1.043       .  S
N49          C54   1.356       .  A
N49          C53   1.351       .  A
N50          C57   1.364       .  A
N50          C58   1.366       .  A
N51          H82   1.043       .  S
N51          C56   1.356       .  A
N51          C55   1.347       .  A
N52          C59   1.339       .  A
N52          C60   1.343       .  A
C53          C61   1.389       .  A
C53          C69   1.417       .  A
C54          C70   1.414       .  A
C54          C62   1.385       .  A
C55          C63   1.389       .  A
C55          C72   1.415       .  A
C56          C71   1.414       .  A
C56          C64   1.384       .  A
C57          C69   1.442       .  A
C57          C65   1.386       .  A
C58          C72   1.447       .  A
C58          C66   1.390       .  A
C59          C67   1.388       .  A
C59          C70   1.399       .  A
C60          C68   1.385       .  A
C60          C71   1.400       .  A
C61          C62   1.379       .  A
C61          H73   1.083       .  S
C62          H74   1.082       .  S
C63          C64   1.382       .  A
C63          H75   1.082       .  S
C64          H76   1.082       .  S
C65          C66   1.393       .  A
C65          H77   1.082       .  S
C66          H78   1.081       .  S
C67          C68   1.372       .  A
C67          H79   1.082       .  S
C68          H80   1.082       .  S
C69         C528   1.522       .  S
C70         C584   1.479       .  S
C71         C598   1.487       .  S
C72         C545   1.533       .  S
N83         H115   1.037       .  S
N83          C88   1.353       .  A
N83        C1363   1.354       .  A
N84          C91   1.348       .  A
N84          C92   1.349       .  A
N85         H116   1.039       .  S
N85          C90   1.347       .  A
N85        C1365   1.346       .  A
N86          C93   1.347       .  A
N86          C94   1.351       .  A
C87        N1359   1.354       .  A
C87          C95   1.386       .  A
C87         C103   1.415       .  A
C88         C104   1.416       .  A
C88          C96   1.389       .  A
C89        N1361   1.346       .  A
C89          C97   1.388       .  A
C89         C106   1.403       .  A
C90         C105   1.404       .  A
C90          C98   1.386       .  A
C91          C99   1.386       .  A
C91         C741   1.411       .  A
C92         C106   1.409       .  A
C92         C100   1.385       .  A
C93         C101   1.387       .  A
C93         C742   1.412       .  A
C94         C102   1.385       .  A
C94         C105   1.411       .  A
C95        C1372   1.373       .  A
C95         H107   1.082       .  S
C96        C1371   1.373       .  A
C96         H108   1.082       .  S
C97        C1374   1.371       .  A
C97         H109   1.082       .  S
C98        C1373   1.371       .  A
C98         H110   1.083       .  S
C99         C100   1.380       .  A
C99         H749   1.082       .  S
C100        H112   1.082       .  S
C101        C102   1.382       .  A
C101        H751   1.082       .  S
C102        H114   1.082       .  S
C103        C729   1.413       .  A
C103        C570   1.489       .  S
C104        C731   1.411       .  A
C104        C556   1.480       .  S
C105        C500   1.484       .  S
C106        C514   1.475       .  S
H111        C737   1.082       .  S
H113        C739   1.082       .  S
N117        H149   1.043       .  S
N117        C122   1.357       .  A
N117        C121   1.348       .  A
N118        C125   1.362       .  A
N118        C126   1.366       .  A
N119        H150   1.043       .  S
N119        C124   1.354       .  A
N119        C123   1.349       .  A
N120        C127   1.341       .  A
N120        C128   1.340       .  A
C121        C129   1.390       .  A
C121        C137   1.415       .  A
C122        C138   1.415       .  A
C122        C130   1.385       .  A
C123        C131   1.389       .  A
C123        C140   1.416       .  A
C124        C139   1.412       .  A
C124        C132   1.385       .  A
C125        C137   1.439       .  A
C125        C133   1.386       .  A
C126        C140   1.445       .  A
C126        C134   1.388       .  A
C127        C135   1.386       .  A
C127        C138   1.398       .  A
C128        C136   1.388       .  A
C128        C139   1.400       .  A
C129        C130   1.381       .  A
C129        H141   1.082       .  S
C130        H142   1.082       .  S
C131        C132   1.378       .  A
C131        H143   1.082       .  S
C132        H144   1.082       .  S
C133        C134   1.393       .  A
C133        H145   1.082       .  S
C134        H146   1.081       .  S
C135        C136   1.371       .  A
C135        H147   1.083       .  S
C136        H148   1.082       .  S
C137        C472   1.515       .  S
C138        C503   1.484       .  S
C139        C517   1.477       .  S
C140        C486   1.541       .  S
N151        H183   1.040       .  S
N151        C156   1.358       .  A
N151        C155   1.357   1_455  A
N152        C159   1.342       .  A
N152        C160   1.347       .  A
N153        H184   1.038       .  S
N153        C158   1.350       .  A
N153        C157   1.361       .  A
N154        C161   1.365       .  A
N154        C162   1.361       .  A
C155        C163   1.382       .  A
C155        C171   1.413       .  A
C156        C164   1.391   1_455  A
C156       C1448   1.429       .  A
C157        C165   1.382       .  A
C157        C174   1.414       .  A
C158        C166   1.392       .  A
C158       C1449   1.423       .  A
C159        C171   1.404   1_455  A
C159        C167   1.390   1_455  A
C160        C174   1.402       .  A
C160        C168   1.386   1_455  A
C161        C169   1.387       .  A
C161        C172   1.444       .  A
C162        C170   1.386       .  A
C162        C173   1.441       .  A
C163        C164   1.372       .  A
C163        H175   1.082       .  S
C164        H176   1.083       .  S
C165        C166   1.373       .  A
C165        H177   1.082       .  S
C166        H178   1.083       .  S
C167        C168   1.358       .  A
C167        H179   1.082       .  S
C168        H180   1.082       .  S
C169        C170   1.387       .  A
C169        H181   1.080       .  S
C170        H182   1.080       .  S
C171        C430   1.476       .  S
C172       C1432   1.429       .  A
C172        C461   1.540       .  S
C173       C1434   1.423       .  A
C173        C444   1.513       .  S
C174        C419   1.488       .  S
N185        H217   1.039       .  S
N185        C190   1.350   1_655  A
N185        C189   1.347       .  A
N186        C831   1.349       .  A
N186        C832   1.348       .  A
N187        H218   1.039       .  S
N187        C192   1.350       .  A
N187        C191   1.353       .  A
N188        C195   1.350       .  A
N188        C196   1.347       .  A
C189        C197   1.387   1_655  A
C189        C843   1.406       .  A
C190        C206   1.407       .  A
C190        C198   1.387       .  A
C191        C199   1.388       .  A
C191        C846   1.414       .  A
C192        C207   1.410       .  A
C192        C200   1.386       .  A
C193        N824   1.348       .  A
C193        C205   1.410       .  A
C193        C201   1.386       .  A
C194        N824   1.351       .  A
C194        C208   1.412       .  A
C194        C202   1.385       .  A
C195        C203   1.385       .  A
C195        C206   1.411   1_655  A
C196        C204   1.387       .  A
C196        C207   1.410       .  A
C197        C198   1.370       .  A
C197        H209   1.082       .  S
C198        H210   1.082       .  S
C199        C200   1.373       .  A
C199        H211   1.082       .  S
C200        H212   1.083       .  S
C201        C202   1.379       .  A
C201        H213   1.082       .  S
C202        H214   1.082       .  S
C203        C204   1.381       .  A
C203        H215   1.082       .  S
C204        H216   1.082       .  S
C205        C827   1.406   1_545  A
C205        C433   1.472       .  S
C206        C416   1.485       .  S
C207        C388   1.478       .  S
C208        C829   1.413   1_545  A
C208        C402   1.494       .  S
O219       Ni227   1.919       .  S
O219        C229   1.282       .  A
O220       Ni227   1.921       .  S
O220        C230   1.282       .  A
O221       Ni227   1.913       .  S
O221        C231   1.280       .  A
O222       Ni227   1.913       .  S
O222        C232   1.280       .  A
O223       Ni228   1.905       .  S
O223        C232   1.280       .  A
O224       Ni228   1.908       .  S
O224        C231   1.280       .  A
O225       Ni228   1.924       .  S
O225        C230   1.283       .  A
O226       Ni228   1.922       .  S
O226        C229   1.283       .  A
Ni227      Ni228   2.383       .  S
C229        C363   1.489       .  S
C230        C405   1.497       .  S
C231        C391   1.483       .  S
C232        C374   1.480       .  S
C233        C447   1.588       .  S
C233        C458   1.586       .  S
C233        C475   1.608       .  S
C233       C1765   1.601       .  S
N234        H266   1.038       .  S
N234        C239   1.354       .  A
N234        C238   1.353       .  A
N235        C880   1.346       .  A
N235        C881   1.350       .  A
N236        H267   1.039   1_455  S
N236        C241   1.346       .  A
N236        C240   1.348       .  A
N237        C244   1.349       .  A
N237        C245   1.350       .  A
C238        C246   1.386       .  A
C238        C892   1.413       .  A
C239        C255   1.418       .  A
C239        C247   1.389       .  A
C240        C248   1.387       .  A
C240        C895   1.404       .  A
C241        C256   1.403   1_455  A
C241        C249   1.388       .  A
C242        N873   1.345       .  A
C242        C254   1.408       .  A
C242        C250   1.388       .  A
C243        N873   1.349       .  A
C243        C257   1.407       .  A
C243        C251   1.384       .  A
C244        C252   1.387       .  A
C244        C255   1.414       .  A
C245        C253   1.385       .  A
C245        C256   1.411       .  A
C246        C247   1.372       .  A
C246        H258   1.082       .  S
C247        H259   1.082       .  S
C248        C249   1.368       .  A
C248        H260   1.083       .  S
C249        H261   1.081       .  S
C250        C251   1.380       .  A
C250        H262   1.082       .  S
C251        H263   1.082       .  S
C252        C253   1.383       .  A
C252        H264   1.082       .  S
C253        H265   1.082       .  S
C254        C876   1.413       .  A
C254        C377   1.477       .  S
C255        C360   1.490       .  S
C256        C332   1.478       .  S
C257        C878   1.405       .  A
C257        C349   1.483       .  S
N268        H300   1.041   1_455  S
N268        C273   1.359       .  A
N268        C272   1.350       .  A
N269       C1552   1.365       .  A
N269       C1553   1.365       .  A
N270        H301   1.038       .  S
N270        C275   1.358   1_455  A
N270        C274   1.356       .  A
N271        C278   1.343       .  A
N271        C279   1.340       .  A
C272        C280   1.389       .  A
C272       C1564   1.416       .  A
C273        C289   1.416   1_455  A
C273        C281   1.385       .  A
C274        C282   1.396       .  A
C274       C1567   1.435       .  A
C275        C290   1.407       .  A
C275        C283   1.376       .  A
C276       N1545   1.365       .  A
C276        C288   1.444       .  A
C276        C284   1.386       .  A
C277       N1545   1.365       .  A
C277        C291   1.451       .  A
C277        C285   1.390       .  A
C278        C286   1.389       .  A
C278        C289   1.401       .  A
C279        C287   1.385       .  A
C279        C290   1.396       .  A
C280        C281   1.378       .  A
C280        H292   1.083       .  S
C281        H293   1.082       .  S
C282        C283   1.374   1_455  A
C282        H294   1.081       .  S
C283        H295   1.083       .  S
C284        C285   1.388       .  A
C284        H296   1.080       .  S
C285        H297   1.079       .  S
C286        C287   1.362       .  A
C286        H298   1.082       .  S
C287        H299   1.082       .  S
C288       C1548   1.416       .  A
C288        C318   1.526       .  S
C289        C346   1.482       .  S
C290        C335   1.478       .  S
C291       C1550   1.435       .  A
C291        C307   1.537       .  S
C302        C304   1.580       .  S
C302        C321   1.592       .  S
C302        C531   1.610       .  S
C302       C1818   1.596       .  S
C303        C308   1.415       .  A
C303       C1580   1.411       .  A
C303        H310   1.082       .  S
C304        C305   1.429       .  A
C304       C1579   1.411       .  A
C305        C306   1.416       .  A
C305        N312   1.433       .  S
C306        C307   1.406       .  A
C306        H311   1.081       .  S
C307       C1584   1.431       .  A
C308       C1583   1.431       .  A
C308        N309   1.439       .  S
N309        H313   1.045       .  S
N309        H314   1.044       .  S
N312        H315   1.046       .  S
N312        H316   1.045       .  S
C317        C322   1.420       .  A
C317       C1594   1.401       .  A
C317        H324   1.083       .  S
C318        C319   1.423       .  A
C318       C1593   1.401       .  A
C319        C320   1.408       .  A
C319        N326   1.434       .  S
C320        C959   1.414       .  A
C320        H963   1.079       .  S
C321        C958   1.413       .  A
C321       C2236   1.444       .  A
C322       C2235   1.443       .  A
C322        N323   1.430       .  S
N323        H327   1.046       .  S
N323        H328   1.046       .  S
H325        C958   1.079       .  S
N326        H329   1.045       .  S
N326        H330   1.042       .  S
C331        C332   1.398   1_455  A
C331        C336   1.398       .  A
C331        H338   1.084       .  S
C332        C333   1.411       .  A
C333        C334   1.405       .  A
C333        N340   1.432       .  S
C334        C335   1.400       .  A
C334        H339   1.084       .  S
C335        C336   1.410   1_655  A
C336        N337   1.433       .  S
N337        H341   1.045       .  S
N337        H342   1.046       .  S
N340        H343   1.045       .  S
N340       H1620   1.046       .  S
H344       N1616   1.046       .  S
C345        C346   1.406   1_455  A
C345        C350   1.402       .  A
C345        H352   1.084       .  S
C346        C347   1.412       .  A
C347        C348   1.397       .  A
C347       N1630   1.438       .  S
C348        C349   1.406       .  A
C348       H1629   1.085       .  S
C349        C350   1.414   1_655  A
C350        N351   1.438       .  S
N351        H355   1.045       .  S
N351        H994   1.043       .  S
H353       C1624   1.085       .  S
N354       C1623   1.438       .  S
N354        H357   1.043       .  S
N354        H358   1.046       .  S
H356        N989   1.043       .  S
C359        C360   1.404       .  A
C359        C364   1.407       .  A
C359        H366   1.084       .  S
C360        C361   1.405   1_655  A
C361        C362   1.405       .  A
C361        N368   1.432       .  S
C362        C363   1.409   1_455  A
C362        H367   1.084       .  S
C363        C364   1.416       .  A
C364        N365   1.438       .  S
N365        H369   1.046       .  S
N365        H370   1.045       .  S
N368        H371   1.045       .  S
N368        H372   1.046       .  S
C373        C374   1.407       .  A
C373        C378   1.399       .  A
C373        H380   1.083   1_655  S
C374        C375   1.415       .  A
C375        C376   1.404       .  A
C375        N382   1.438       .  S
C376        C377   1.400       .  A
C376        H381   1.084       .  S
C377        C378   1.405       .  A
C378        N379   1.438   1_655  S
N379        H383   1.045       .  S
N379       H1022   1.045       .  S
N382        H385   1.046       .  S
N382       H1662   1.046       .  S
H384       N1017   1.045       .  S
H386       N1658   1.046       .  S
C387        C388   1.401       .  A
C387        C392   1.400       .  A
C387        H394   1.084       .  S
C388        C389   1.412   1_655  A
C389        C390   1.398       .  A
C389        N396   1.439       .  S
C390        C391   1.408   1_455  A
C390        H395   1.083       .  S
C391        C392   1.413       .  A
C392        N393   1.433       .  S
N393        H397   1.046       .  S
N393        H398   1.045       .  S
N396        H399   1.043       .  S
N396        H400   1.045       .  S
C401        C402   1.402       .  A
C401        C406   1.408       .  A
C401        H408   1.084       .  S
C402        C403   1.416       .  A
C403        C404   1.405       .  A
C403        N410   1.438   1_655  S
C404        C405   1.409       .  A
C404        H409   1.083   1_655  S
C405        C406   1.418       .  A
C406        N407   1.438       .  S
N407        H412   1.045       .  S
N407       H1687   1.046       .  S
N410        H413   1.043       .  S
N410        H414   1.046       .  S
H411       N1683   1.046       .  S
C415        C416   1.403   1_655  A
C415        C420   1.399       .  A
C415       H1698   1.084       .  S
C416        C417   1.415       .  A
C417        C418   1.404       .  A
C417        N424   1.438       .  S
C418        C419   1.405       .  A
C418        H423   1.084       .  S
C419        C420   1.415   1_455  A
C420       N1697   1.439       .  S
N421       C1696   1.439       .  S
N421        H425   1.046       .  S
N421        H426   1.043       .  S
H422       C1691   1.084       .  S
N424        H427   1.044       .  S
N424        H428   1.045       .  S
C429        C430   1.400       .  A
C429        C434   1.397       .  A
C429       H1712   1.084       .  S
C430        C431   1.418   1_655  A
C431        C432   1.394       .  A
C431        N438   1.438       .  S
C432        C433   1.398   1_455  A
C432        H437   1.084       .  S
C433        C434   1.416       .  A
C434       N2349   1.438       .  S
N435       C2348   1.438       .  S
N435        H439   1.045       .  S
N435        H440   1.044       .  S
H436       C1705   1.084       .  S
N438        H441   1.044       .  S
N438        H442   1.046       .  S
C443        C444   1.406       .  A
C443        C448   1.405       .  A
C443        H450   1.085       .  S
C444       C1721   1.416       .  A
C445        C446   1.415       .  A
C445       C1720   1.416       .  A
C445        N452   1.437       .  S
C446       C1723   1.429       .  A
C446        H451   1.077       .  S
C447        C448   1.420       .  A
C447       C1722   1.429       .  A
C448        N449   1.428       .  S
N449        H453   1.046       .  S
N449        H454   1.046       .  S
N452        H455   1.042       .  S
N452        H456   1.046       .  S
C457        C462   1.426       .  A
C457       C1096   1.422   1_545  A
C457        H464   1.083       .  S
C458       C1095   1.419       .  A
C458       C1735   1.424       .  A
C459       C1734   1.424       .  A
C459       C1098   1.418       .  A
C459        N466   1.432       .  S
C460       C1097   1.413       .  A
C460       C1737   1.414       .  A
C460        H465   1.084       .  S
C461        C462   1.419       .  A
C461       C1736   1.414       .  A
C462        N463   1.436       .  S
N463        H467   1.045       .  S
N463        H468   1.045       .  S
N466        H469   1.046       .  S
N466        H470   1.045       .  S
C471        C472   1.392       .  A
C471        C476   1.412       .  A
C471        H478   1.084       .  S
C472        C473   1.420       .  A
C473        C474   1.413       .  A
C473        N480   1.433       .  S
C474        C475   1.419       .  A
C474        H479   1.083       .  S
C475        C476   1.449       .  A
C476        N477   1.432       .  S
N477        H481   1.046       .  S
N477        H482   1.045       .  S
N480        H483   1.046       .  S
N480        H484   1.043       .  S
C485        C486   1.420       .  A
C485        C490   1.414       .  A
C485        H492   1.083       .  S
C486        C487   1.410       .  A
C487        C488   1.419       .  A
C487        N494   1.431       .  S
C488        C489   1.430       .  A
C488        H493   1.077       .  S
C489        C490   1.428       .  A
C489       C1509   1.601       .  S
C490        N491   1.434       .  S
N491        H495   1.046       .  S
N491        H496   1.041       .  S
N494        H497   1.045       .  S
N494        H498   1.046       .  S
C499        C500   1.408       .  A
C499        C504   1.403       .  A
C499        H506   1.084       .  S
C500        C501   1.403       .  A
C501        C502   1.402       .  A
C501        N508   1.432       .  S
C502        C503   1.408       .  A
C502        H507   1.084       .  S
C503        C504   1.402       .  A
C504        N505   1.431       .  S
N505        H509   1.045       .  S
N505        H510   1.046       .  S
N508        H511   1.046       .  S
N508        H512   1.045       .  S
C513        C514   1.399       .  A
C513        C518   1.399       .  A
C513       H1158   1.084       .  S
C514        C515   1.418       .  A
C515        C516   1.396       .  A
C515        N522   1.440       .  S
C516        C517   1.399       .  A
C516        H521   1.084       .  S
C517        C518   1.418       .  A
C518        N519   1.439       .  S
N519        H524   1.042       .  S
N519       H1161   1.046       .  S
H520       C1151   1.084       .  S
N522        H525   1.043       .  S
N522        H526   1.046       .  S
H523       N1157   1.046   1_545  S
C527        C528   1.394       .  A
C527        C532   1.415       .  A
C527        H534   1.084       .  S
C528        C529   1.417       .  A
C529        C530   1.420       .  A
C529        N536   1.432       .  S
C530        C531   1.417       .  A
C530        H535   1.083       .  S
C531        C532   1.449       .  A
C532        N533   1.433       .  S
N533        H537   1.046       .  S
N533        H538   1.046       .  S
N536        H539   1.045       .  S
N536        H540   1.046       .  S
C541        C542   1.411       .  A
C541        C546   1.412       .  A
C541        H548   1.074       .  S
C542        C543   1.445       .  A
C542       C1578   1.596       .  S
C543        C544   1.419       .  A
C543        N550   1.436       .  S
C544        C545   1.399       .  A
C544        H549   1.082       .  S
C545        C546   1.431       .  A
C546        N547   1.438       .  S
N547        H551   1.046       .  S
N547        H552   1.042       .  S
N550        H553   1.044       .  S
N550        H554   1.046       .  S
C555        C556   1.398       .  A
C555        C560   1.405       .  A
C555        H562   1.084       .  S
C556       C1195   1.406       .  A
C557        C558   1.403       .  A
C557       C1194   1.407       .  A
C557        N564   1.438       .  S
C558       C1197   1.407       .  A
C558        H563   1.083       .  S
C559        C560   1.420       .  A
C559       C1196   1.408       .  A
C560        N561   1.438   1_565  S
N561        H565   1.046       .  S
N561        H566   1.045       .  S
N564        H567   1.045       .  S
N564        H568   1.045       .  S
C569        C570   1.403       .  A
C569        C574   1.409       .  A
C569       H1214   1.084       .  S
C570        C571   1.404       .  A
C571        C572   1.405       .  A
C571        N578   1.432   1_565  S
C572        C573   1.409       .  A
C572        H577   1.084       .  S
C573        C574   1.414       .  A
C574        N575   1.437       .  S
N575        H580   1.046       .  S
N575       H1217   1.046       .  S
H576       C1207   1.084       .  S
N578        H581   1.045       .  S
N578        H582   1.046       .  S
H579       N1213   1.046       .  S
C583        C584   1.398       .  A
C583        C588   1.399       .  A
C583        H590   1.084       .  S
C584        C585   1.419       .  A
C585        C586   1.396       .  A
C585        N592   1.438       .  S
C586        C587   1.397       .  A
C586        H591   1.084       .  S
C587        C588   1.418       .  A
C588       N1227   1.439       .  S
N589       C1226   1.439   1_545  S
N589        H593   1.046       .  S
N589        H594   1.043       .  S
N592        H595   1.043       .  S
N592        H596   1.045       .  S
C597        C598   1.399       .  A
C597        C602   1.401       .  A
C597       H1242   1.084       .  S
C598        C599   1.419       .  A
C599        C600   1.405       .  A
C599        N606   1.438       .  S
C600        C601   1.401       .  A
C600        H605   1.084       .  S
C601        C602   1.422       .  A
C602       N1241   1.440       .  S
N603       C1240   1.440   1_545  S
N603        H607   1.045       .  S
N603        H608   1.043   1_545  S
H604       C1235   1.084   1_545  S
N606        H609   1.043       .  S
N606        H610   1.045       .  S
C611        C612   1.400       .  A
C611        C616   1.405       .  A
C611       H1256   1.084       .  S
C612        C613   1.406       .  A
C613        C614   1.407       .  A
C613        N620   1.432       .  S
C614        C615   1.409       .  A
C614        H619   1.083       .  S
C615        C616   1.417       .  A
C616       N1255   1.432       .  S
N617       C1254   1.432       .  S
N617        H621   1.046       .  S
N617        H622   1.045       .  S
H618       C1249   1.084       .  S
N620        H623   1.045   1_565  S
N620        H624   1.046   1_565  S
C625        C626   1.402       .  A
C625        C630   1.403       .  A
C625        H632   1.084       .  S
C626        C627   1.404       .  A
C627        C628   1.404       .  A
C627        N634   1.432       .  S
C628        C629   1.409       .  A
C628        H633   1.084       .  S
C629        C630   1.412       .  A
C630        N631   1.438       .  S
N631        H635   1.045   1_565  S
N631        H636   1.046       .  S
N634       H1275   1.045       .  S
N634       H1276   1.046       .  S
H637       N1272   1.045       .  S
H638       N1272   1.046       .  S
N639        H671   1.040       .  S
N639       C1920   1.347       .  A
N639        C643   1.349       .  A
N640        C648   1.349       .  A
N641        H672   1.038       .  S
N641        C646   1.355       .  A
N641       C1921   1.351       .  A
N642        C650   1.349       .  A
C643        C651   1.385       .  A
C643        C659   1.403       .  A
C644       N1915   1.347       .  A
C644        C660   1.406       .  A
C644        C652   1.388       .  A
C645       N1917   1.351       .  A
C645        C653   1.388       .  A
C645        C662   1.415       .  A
C646        C661   1.417       .  A
C646        C654   1.388       .  A
C647        C659   1.414       .  A
C647        C655   1.384       .  A
C648        C662   1.415       .  A
C648        C656   1.388       .  A
C649        C657   1.385       .  A
C649        C660   1.412       .  A
C650        C658   1.387       .  A
C650        C661   1.412       .  A
C651       C1928   1.371       .  A
C651        H663   1.083       .  S
C652       C1927   1.371       .  A
C652        H664   1.082       .  S
C653       C1930   1.374       .  A
C653        H665   1.083       .  S
C654       C1929   1.374       .  A
C654        H666   1.082       .  S
C655        H667   1.082       .  S
C656        H668   1.082       .  S
C657        H669   1.082       .  S
C658        H670   1.082       .  S
C659       C1239   1.492       .  S
C660       C1225   1.479       .  S
C661       C1250   1.488       .  S
C662       C1264   1.483       .  S
O673       Ni681   1.926       .  S
O674       Ni681   1.922   1_554  S
O675       Ni681   1.913   1_554  S
O676       Ni681   1.913       .  S
O677       Ni682   1.914       .  S
O677        C686   1.281       .  A
O678       Ni682   1.916   1_554  S
O678        C685   1.282       .  A
O679       Ni682   1.920   1_554  S
O679        C684   1.282       .  A
O680       Ni682   1.916       .  S
O680        C683   1.281       .  A
C683       C1211   1.486       .  S
C684       C1253   1.492       .  S
C685       C1267   1.480       .  S
C686       C1197   1.486       .  S
N687        H719   1.042   1_565  S
N687        C692   1.358       .  A
N687        C691   1.352       .  A
N688        C695   1.366       .  A
N688        C696   1.368       .  A
N689        H720   1.043   1_565  S
N689        C694   1.358       .  A
N689        C693   1.349       .  A
N690        C697   1.341       .  A
N690        C698   1.344       .  A
C691        C699   1.390       .  A
C691        C707   1.421       .  A
C692        C708   1.416       .  A
C692        C700   1.384       .  A
C693        C701   1.390       .  A
C693        C710   1.419       .  A
C694        C709   1.416       .  A
C694        C702   1.384       .  A
C695        C707   1.445       .  A
C695        C703   1.386   1_565  A
C696        C710   1.449       .  A
C696        C704   1.389   1_565  A
C697        C705   1.388   1_565  A
C697        C708   1.399       .  A
C698        C706   1.386   1_565  A
C698        C709   1.400       .  A
C699        C700   1.380       .  A
C699        H711   1.082       .  S
C700        H712   1.082       .  S
C701        C702   1.382       .  A
C701        H713   1.082       .  S
C702        H714   1.082       .  S
C703        C704   1.393       .  A
C703        H715   1.082       .  S
C704        H716   1.081       .  S
C705        C706   1.370       .  A
C705        H717   1.082       .  S
C706        H718   1.082       .  S
C707       C1166   1.526       .  S
C708       C1222   1.483       .  S
C709       C1236   1.490       .  S
C710       C1183   1.537       .  S
N721        H753   1.038       .  S
N721        C726   1.352       .  A
N721       C2001   1.354       .  A
N722        C729   1.349       .  A
N722        C730   1.350       .  A
N723        H754   1.039       .  S
N723        C728   1.348       .  A
N723       C2003   1.347       .  A
N724        C731   1.347       .  A
N724        C732   1.350       .  A
C725       N1997   1.354       .  A
C725        C733   1.386       .  A
C725        C741   1.414       .  A
C726        C742   1.416       .  A
C726        C734   1.389       .  A
C727       N1999   1.347       .  A
C727        C735   1.388       .  A
C727        C744   1.404       .  A
C728        C743   1.404       .  A
C728        C736   1.386       .  A
C729        C737   1.386       .  A
C730        C744   1.411       .  A
C730        C738   1.385       .  A
C731        C739   1.387       .  A
C732        C740   1.385       .  A
C732        C743   1.410       .  A
C733       C2010   1.373       .  A
C733        H745   1.082       .  S
C734       C2009   1.373       .  A
C734        H746   1.082       .  S
C735       C2012   1.371       .  A
C735        H747   1.082       .  S
C736       C2011   1.371       .  A
C736        H748   1.083       .  S
C737        C738   1.381       .  A
C738        H750   1.082       .  S
C739        C740   1.381       .  A
C740        H752   1.082       .  S
C741       C1208   1.487       .  S
C742       C1194   1.480       .  S
C743       C1138   1.482       .  S
C744       C1152   1.479       .  S
N755        H787   1.042       .  S
N755        C760   1.357       .  A
N755        C759   1.349       .  A
N756        C763   1.362       .  A
N756        C764   1.365       .  A
N757        H788   1.043       .  S
N757        C762   1.355       .  A
N757        C761   1.349       .  A
N758        C765   1.340       .  A
N758        C766   1.341       .  A
C759        C767   1.390       .  A
C759        C775   1.416       .  A
C760        C776   1.416       .  A
C760        C768   1.385       .  A
C761        C769   1.390       .  A
C761        C778   1.419       .  A
C762        C777   1.413       .  A
C762        C770   1.384       .  A
C763        C775   1.436       .  A
C763        C771   1.385       .  A
C764        C778   1.444       .  A
C764        C772   1.389       .  A
C765        C773   1.387       .  A
C765        C776   1.398       .  A
C766        C774   1.388       .  A
C766        C777   1.400       .  A
C767        C768   1.382       .  A
C767        H779   1.082       .  S
C768        H780   1.082       .  S
C769        C770   1.380       .  A
C769        H781   1.082       .  S
C770        H782   1.082       .  S
C771        C772   1.392       .  A
C771        H783   1.082       .  S
C772        H784   1.080       .  S
C773        C774   1.370       .  A
C773        H785   1.083       .  S
C774        H786   1.082       .  S
C775       C1110   1.514       .  S
C776       C1141   1.482       .  S
C777       C1155   1.481       .  S
C778       C1124   1.540       .  S
N789        H821   1.037       .  S
N789        C794   1.360       .  A
N789        C793   1.360       .  A
N790        C797   1.338       .  A
N790        C798   1.342       .  A
N791        H822   1.041       .  S
N791        C796   1.349   1_655  A
N791        C795   1.362       .  A
N792        C799   1.367       .  A
N792        C800   1.366       .  A
C793        C801   1.376       .  A
C793        C809   1.416       .  A
C794       C2086   1.444   1_655  A
C794        C802   1.399       .  A
C795        C803   1.385   1_655  A
C795        C812   1.421       .  A
C796       C2087   1.420       .  A
C796        C804   1.389       .  A
C797        C809   1.396       .  A
C797        C805   1.388       .  A
C798        C812   1.402       .  A
C798        C806   1.386       .  A
C799        C807   1.389       .  A
C799        C810   1.450       .  A
C800        C808   1.384       .  A
C800        C811   1.442       .  A
C801        C802   1.374       .  A
C801        H813   1.083       .  S
C802        H814   1.076   1_655  S
C803        C804   1.380       .  A
C803        H815   1.082       .  S
C804        H816   1.082       .  S
C805        C806   1.371       .  A
C805        H817   1.082       .  S
C806        H818   1.082       .  S
C807        C808   1.384       .  A
C807        H819   1.079       .  S
C808        H820   1.080       .  S
C809       C1068   1.486       .  S
C810       C2070   1.444       .  A
C810       C1099   1.539       .  S
C811       C2072   1.420       .  A
C811       C1082   1.526       .  S
C812       C1057   1.493       .  S
N823        H855   1.040       .  S
N823        C828   1.353       .  A
N823        C827   1.347       .  A
N825        H856   1.039       .  S
N825        C830   1.352       .  A
N825        C829   1.357       .  A
N826        C833   1.353       .  A
N826        C834   1.346       .  A
C827        C835   1.389       .  A
C828        C844   1.409       .  A
C828        C836   1.387       .  A
C829        C837   1.384       .  A
C830        C845   1.419       .  A
C830        C838   1.391       .  A
C831        C843   1.410       .  A
C831        C839   1.385       .  A
C832        C846   1.411       .  A
C832        C840   1.386       .  A
C833        C841   1.384       .  A
C833        C844   1.413       .  A
C834        C842   1.388       .  A
C834        C845   1.413       .  A
C835        C836   1.365       .  A
C835        H847   1.082       .  S
C836        H848   1.082       .  S
C837        C838   1.370       .  A
C837        H849   1.082   1_565  S
C838        H850   1.082       .  S
C839        C840   1.382       .  A
C839        H851   1.082       .  S
C840        H852   1.082       .  S
C841        C842   1.381       .  A
C841        H853   1.082       .  S
C842        H854   1.082       .  S
C843       C1071   1.479       .  S
C844       C1054   1.492       .  S
C845       C1026   1.477       .  S
C846       C1040   1.486       .  S
O857       Ni865   1.926       .  S
O857        C867   1.283       .  A
O858       Ni865   1.925       .  S
O858        C868   1.283       .  A
O859       Ni865   1.915       .  S
O859        C869   1.280       .  A
O860       Ni865   1.918       .  S
O860        C870   1.282       .  A
O861       Ni866   1.904       .  S
O861        C870   1.280       .  A
O862       Ni866   1.905       .  S
O862        C869   1.281       .  A
O863       Ni866   1.909       .  S
O863        C868   1.281       .  A
O864       Ni866   1.911       .  S
O864        C867   1.281       .  A
Ni865      Ni866   2.385       .  S
C867       C1001   1.483       .  S
C868       C1043   1.489       .  S
C869       C1029   1.479       .  S
C870       C1012   1.484       .  S
C871       C1085   1.590       .  S
C871       C1096   1.588       .  S
C871       C1113   1.603       .  S
C871       C2403   1.600       .  S
N872        H904   1.039       .  S
N872        C877   1.354       .  A
N872        C876   1.353   1_565  A
N874        H905   1.039       .  S
N874        C879   1.348       .  A
N874        C878   1.349   1_565  A
N875        C882   1.350       .  A
N875        C883   1.350       .  A
C876        C884   1.387   1_545  A
C877        C893   1.414       .  A
C877        C885   1.388       .  A
C878        C886   1.385   1_655  A
C879        C894   1.408       .  A
C879        C887   1.390   1_655  A
C880        C892   1.410       .  A
C880        C888   1.388       .  A
C881        C895   1.409   1_655  A
C881        C889   1.384       .  A
C882        C890   1.386       .  A
C882        C893   1.413       .  A
C883        C891   1.386       .  A
C883        C894   1.412       .  A
C884        C885   1.370       .  A
C884        H896   1.082   1_565  S
C885        H897   1.082       .  S
C886        C887   1.364   1_545  A
C886        H898   1.083       .  S
C887        H899   1.080       .  S
C888        C889   1.380       .  A
C888        H900   1.082       .  S
C889        H901   1.082       .  S
C890        C891   1.381       .  A
C890        H902   1.082       .  S
C891        H903   1.082       .  S
C892       C1015   1.480       .  S
C893        C998   1.488       .  S
C894        C970   1.476       .  S
C895        C987   1.482       .  S
N906        H938   1.040       .  S
N906        C911   1.358       .  A
N906        C910   1.347       .  A
N907       C2190   1.364       .  A
N907       C2191   1.365       .  A
N908        H939   1.038       .  S
N908        C913   1.358   1_455  A
N908        C912   1.357       .  A
N909        C916   1.345   1_455  A
N909        C917   1.341   1_455  A
C910        C918   1.389       .  A
C910       C2202   1.413       .  A
C911        C927   1.412       .  A
C911        C919   1.384       .  A
C912        C920   1.393   1_455  A
C912       C2205   1.434       .  A
C913        C928   1.412       .  A
C913        C921   1.380       .  A
C914       N2183   1.364       .  A
C914        C926   1.443       .  A
C914        C922   1.385       .  A
C915       N2183   1.365       .  A
C915        C929   1.450       .  A
C915        C923   1.390       .  A
C916        C924   1.387       .  A
C916        C927   1.401   1_655  A
C917        C925   1.389       .  A
C917        C928   1.402       .  A
C918        C919   1.375       .  A
C918        H930   1.083       .  S
C919        H931   1.082       .  S
C920        C921   1.374       .  A
C920        H932   1.082       .  S
C921        H933   1.082       .  S
C922        C923   1.389       .  A
C922        H934   1.080       .  S
C923        H935   1.079       .  S
C924        C925   1.361       .  A
C924        H936   1.082       .  S
C925        H937   1.082       .  S
C926       C2186   1.413       .  A
C926        C956   1.520       .  S
C927        C984   1.481       .  S
C928        C973   1.476       .  S
C929       C2188   1.434       .  A
C929        C945   1.540       .  S
C940        C942   1.583       .  S
C940        C959   1.597   1_565  S
C940       C1169   1.616       .  S
C940       C2456   1.604       .  S
C941       C2218   1.412       .  A
C941        C946   1.415       .  A
C941        H948   1.082       .  S
C942       C2217   1.412       .  A
C942        C943   1.429       .  A
C943        C944   1.418       .  A
C943        N950   1.433       .  S
C944        C945   1.408       .  A
C944        H949   1.081       .  S
C945       C2222   1.432       .  A
C946       C2221   1.432       .  A
C946        N947   1.439       .  S
N947        H951   1.045       .  S
N947        H952   1.044       .  S
N950        H953   1.046       .  S
N950        H954   1.045       .  S
C955       C2232   1.398       .  A
C955        C960   1.417       .  A
C955        H962   1.082       .  S
C956       C2231   1.398       .  A
C956        C957   1.423       .  A
C957        C958   1.407       .  A
C957        N964   1.434       .  S
C959       C1598   1.443       .  A
C960       C1597   1.444       .  A
C960        N961   1.430       .  S
N961        H965   1.046       .  S
N961        H966   1.046       .  S
N964        H967   1.045       .  S
N964        H968   1.043       .  S
C969        C970   1.399   1_455  A
C969        C974   1.395       .  A
C969        H976   1.084       .  S
C970        C971   1.409       .  A
C971        C972   1.404       .  A
C971        N978   1.432       .  S
C972        C973   1.402       .  A
C972        H977   1.083       .  S
C973        C974   1.408   1_655  A
C974        N975   1.433       .  S
N975        H979   1.045       .  S
N975        H980   1.046       .  S
N978        H981   1.045       .  S
N978       H2258   1.046       .  S
H982       N2254   1.046       .  S
C983        C984   1.405       .  A
C983        C988   1.402       .  A
C983        H990   1.084       .  S
C984        C985   1.412   1_455  A
C985        C986   1.396       .  A
C985       N2268   1.438       .  S
C986        C987   1.405   1_655  A
C986       H2267   1.085       .  S
C987        C988   1.414       .  A
C988        N989   1.438       .  S
N989        H993   1.045       .  S
H991       C2262   1.085       .  S
N992       C2261   1.438       .  S
N992        H995   1.043       .  S
N992        H996   1.046       .  S
C997        C998   1.405       .  A
C997       C1002   1.409       .  A
C997       H1004   1.084       .  S
C998        C999   1.404       .  A
C999       C1000   1.401       .  A
C999       N1006   1.432   1_655  S
C1000      C1001   1.407       .  A
C1000      H1005   1.084       .  S
C1001      C1002   1.413       .  A
C1002      N1003   1.437       .  S
N1003      H1007   1.046       .  S
N1003      H1008   1.045       .  S
N1006      H1009   1.045       .  S
N1006      H1010   1.046       .  S
C1011      C1012   1.408       .  A
C1011      C1016   1.401   1_655  A
C1011      H1018   1.083   1_655  S
C1012      C1013   1.415       .  A
C1013      C1014   1.405       .  A
C1013      N1020   1.438       .  S
C1014      C1015   1.402       .  A
C1014      H1019   1.084       .  S
C1015      C1016   1.405   1_655  A
C1016      N1017   1.438       .  S
N1017      H1021   1.045       .  S
N1020      H1023   1.046       .  S
N1020      H2300   1.046       .  S
H1024      N2296   1.046       .  S
C1025      C1026   1.402       .  A
C1025      C1030   1.403       .  A
C1025      H1032   1.084       .  S
C1026      C1027   1.414       .  A
C1027      C1028   1.395       .  A
C1027      N1034   1.440       .  S
C1028      C1029   1.406       .  A
C1028      H1033   1.084       .  S
C1029      C1030   1.411       .  A
C1030      N1031   1.432       .  S
N1031      H1035   1.046       .  S
N1031      H1036   1.045       .  S
N1034      H1037   1.043       .  S
N1034      H1038   1.046       .  S
C1039      C1040   1.404       .  A
C1039      C1044   1.408       .  A
C1039      H1046   1.084       .  S
C1040      C1041   1.413       .  A
C1041      C1042   1.399       .  A
C1041      N1048   1.439   1_655  S
C1042      C1043   1.408       .  A
C1042      H1047   1.084   1_655  S
C1043      C1044   1.415       .  A
C1044      N1045   1.437       .  S
N1045      H2325   1.046       .  S
N1045      H1050   1.045       .  S
N1048      H1051   1.042       .  S
N1048      H1052   1.046       .  S
H1049      N2321   1.046       .  S
C1053      C1054   1.407       .  A
C1053      C1058   1.404       .  A
C1053      H2336   1.084       .  S
C1054      C1055   1.417       .  A
C1055      C1056   1.404       .  A
C1055      N1062   1.438       .  S
C1056      C1057   1.405       .  A
C1056      H1061   1.083       .  S
C1057      C1058   1.415       .  A
C1058      N2335   1.438       .  S
N1059      C2334   1.438       .  S
N1059      H1063   1.046       .  S
N1059      H1064   1.044       .  S
H1060      C2329   1.084       .  S
N1062      H1065   1.043       .  S
N1062      H1066   1.045       .  S
C1067      C1068   1.399       .  A
C1067      C1072   1.401       .  A
C1067      H2350   1.084       .  S
C1068      C1069   1.422       .  A
C1069      C1070   1.398       .  A
C1069      N1076   1.439   1_655  S
C1070      C1071   1.397       .  A
C1070      H1075   1.084   1_655  S
C1071      C1072   1.418       .  A
C1072      N1711   1.438       .  S
N1073      C1710   1.438       .  S
N1073      H1077   1.045       .  S
N1073      H1078   1.044       .  S
H1074      C2343   1.084       .  S
N1076      H1079   1.042       .  S
N1076      H1080   1.045   1_455  S
C1081      C1082   1.408       .  A
C1081      C1086   1.406       .  A
C1081      H1088   1.084       .  S
C1082      C2359   1.420       .  A
C1083      C2358   1.420       .  A
C1083      C1084   1.419       .  A
C1083      N1090   1.437       .  S
C1084      C2361   1.427       .  A
C1084      H1089   1.078       .  S
C1085      C2360   1.427       .  A
C1085      C1086   1.421       .  A
C1086      N1087   1.429       .  S
N1087      H1091   1.046       .  S
N1087      H1092   1.046       .  S
N1090      H1093   1.042       .  S
N1090      H1094   1.046       .  S
C1095      C1100   1.424       .  A
C1095      H1102   1.083       .  S
C1096      C2373   1.424   1_565  A
C1097      C2372   1.424   1_545  A
C1097      N1104   1.432   1_545  S
C1098      C2375   1.411       .  A
C1098      H1103   1.084       .  S
C1099      C2374   1.411       .  A
C1099      C1100   1.419       .  A
C1100      N1101   1.437       .  S
N1101      H1105   1.045       .  S
N1101      H1106   1.046       .  S
N1104      H1107   1.046       .  S
N1104      H1108   1.045       .  S
C1109      C1110   1.395       .  A
C1109      C1114   1.415       .  A
C1109      H1116   1.084       .  S
C1110      C1111   1.417       .  A
C1111      C1112   1.412       .  A
C1111      N1118   1.433       .  S
C1112      C1113   1.419       .  A
C1112      H1117   1.083       .  S
C1113      C1114   1.446       .  A
C1114      N1115   1.432   1_565  S
N1115      H1119   1.046       .  S
N1115      H1120   1.046   1_545  S
N1118      H1121   1.046       .  S
N1118      H1122   1.043       .  S
C1123      C1124   1.418       .  A
C1123      C1128   1.411       .  A
C1123      H1130   1.083       .  S
C1124      C1125   1.411       .  A
C1125      C1126   1.418       .  A
C1125      N1132   1.431       .  S
C1126      C1127   1.428       .  A
C1126      H1131   1.078       .  S
C1127      C1128   1.430       .  A
C1127      C2147   1.599       .  S
C1128      N1129   1.434       .  S
N1129      H1133   1.047       .  S
N1129      H1134   1.040       .  S
N1132      H1135   1.045   1_565  S
N1132      H1136   1.046       .  S
C1137      C1138   1.408       .  A
C1137      C1142   1.402       .  A
C1137      H1144   1.084       .  S
C1138      C1139   1.403       .  A
C1139      C1140   1.401       .  A
C1139      N1146   1.432       .  S
C1140      C1141   1.407       .  A
C1140      H1145   1.084       .  S
C1141      C1142   1.402       .  A
C1142      N1143   1.431       .  S
N1143      H1147   1.045       .  S
N1143      H1148   1.046       .  S
N1146      H1149   1.046   1_565  S
N1146      H1150   1.045       .  S
C1151      C1152   1.400       .  A
C1151      C1156   1.400       .  A
C1152      C1153   1.418       .  A
C1153      C1154   1.398       .  A
C1153      N1160   1.440       .  S
C1154      C1155   1.400       .  A
C1154      H1159   1.084       .  S
C1155      C1156   1.419       .  A
C1156      N1157   1.438       .  S
N1157      H1162   1.042       .  S
N1160      H1163   1.043       .  S
N1160      H1164   1.046       .  S
C1165      C1166   1.395       .  A
C1165      C1170   1.417       .  A
C1165      H1172   1.084       .  S
C1166      C1167   1.417   1_565  A
C1167      C1168   1.423       .  A
C1167      N1174   1.432       .  S
C1168      C1169   1.419   1_545  A
C1168      H1173   1.083       .  S
C1169      C1170   1.449       .  A
C1170      N1171   1.433       .  S
N1171      H1175   1.046       .  S
N1171      H1176   1.046       .  S
N1174      H1177   1.046       .  S
N1174      H1178   1.046       .  S
C1179      C1180   1.413       .  A
C1179      C1184   1.414       .  A
C1179      H1186   1.072       .  S
C1180      C1181   1.447       .  A
C1180      C2216   1.604       .  S
C1181      C1182   1.423       .  A
C1181      N1188   1.436       .  S
C1182      C1183   1.401       .  A
C1182      H1187   1.082       .  S
C1183      C1184   1.430       .  A
C1184      N1185   1.438   1_565  S
N1185      H1189   1.046   1_545  S
N1185      H1190   1.042       .  S
N1188      H1191   1.044       .  S
N1188      H1192   1.046       .  S
C1193      C1194   1.398       .  A
C1193      C1198   1.405       .  A
C1193      H1200   1.084       .  S
C1195      C1196   1.403       .  A
C1195      N1202   1.438       .  S
C1196      H1201   1.083       .  S
C1197      C1198   1.419       .  A
C1198      N1199   1.438       .  S
N1199      H1203   1.046       .  S
N1199      H1204   1.045       .  S
N1202      H1205   1.045       .  S
N1202      H1206   1.045       .  S
C1207      C1208   1.403       .  A
C1207      C1212   1.408       .  A
C1208      C1209   1.404       .  A
C1209      C1210   1.404       .  A
C1209      N1216   1.432       .  S
C1210      C1211   1.409       .  A
C1210      H1215   1.084       .  S
C1211      C1212   1.414       .  A
C1212      N1213   1.437       .  S
N1213      H1218   1.046       .  S
N1216      H1219   1.045       .  S
N1216      H1220   1.046       .  S
C1221      C1222   1.399       .  A
C1221      C1226   1.400       .  A
C1221      H1228   1.084   1_565  S
C1222      C1223   1.420       .  A
C1223      C1224   1.398       .  A
C1223      N1230   1.438       .  S
C1224      C1225   1.398       .  A
C1224      H1229   1.084       .  S
C1225      C1226   1.419       .  A
N1227      H1231   1.046       .  S
N1227      H1232   1.043       .  S
N1230      H1233   1.044       .  S
N1230      H1234   1.045       .  S
C1235      C1236   1.400       .  A
C1235      C1240   1.402       .  A
C1236      C1237   1.420       .  A
C1237      C1238   1.406       .  A
C1237      N1244   1.438       .  S
C1238      C1239   1.401       .  A
C1238      H1243   1.084       .  S
C1239      C1240   1.422       .  A
N1241      H1245   1.046       .  S
N1241      H1246   1.043       .  S
N1244      H1247   1.043       .  S
N1244      H1248   1.045       .  S
C1249      C1250   1.400       .  A
C1249      C1254   1.404       .  A
C1250      C1251   1.406       .  A
C1251      C1252   1.406       .  A
C1251      N1258   1.432       .  S
C1252      C1253   1.409       .  A
C1252      H1257   1.083       .  S
C1253      C1254   1.416       .  A
N1255      H1259   1.046       .  S
N1255      H1260   1.045       .  S
N1258      H1261   1.045       .  S
N1258      H1262   1.046       .  S
C1263      C1264   1.402       .  A
C1263      C1268   1.403       .  A
C1263      H1270   1.084       .  S
C1264      C1265   1.403       .  A
C1265      C1266   1.403       .  A
C1265      N1272   1.432       .  S
C1266      C1267   1.409       .  A
C1266      H1271   1.084       .  S
C1267      C1268   1.412       .  A
C1268      N1269   1.438       .  S
N1269      H1273   1.046       .  S
N1269      H1274   1.046       .  S
N1277      H1309   1.040       .  S
N1277      C1281   1.349       .  A
N1278      C1923   1.354       .  A
N1278      C1286   1.349       .  A
N1279      H1310   1.038       .  S
N1279      C1284   1.356       .  A
N1280      C1925   1.349       .  A
N1280      C1288   1.349       .  A
C1281      C1289   1.385       .  A
C1281      C1297   1.404       .  A
C1282      C1298   1.406   1_455  A
C1282      C1290   1.389       .  A
C1283      C1291   1.388       .  A
C1283      C1300   1.416       .  A
C1284      C1299   1.418   1_455  A
C1284      C1292   1.388       .  A
C1285      N1916   1.354       .  A
C1285      C1297   1.413       .  A
C1285      C1293   1.384       .  A
C1286      C1300   1.416       .  A
C1286      C1294   1.388       .  A
C1287      N1918   1.348       .  A
C1287      C1295   1.385       .  A
C1287      C1298   1.410       .  A
C1288      C1296   1.387       .  A
C1288      C1299   1.414       .  A
C1289      H1301   1.083       .  S
C1290      H1302   1.082       .  S
C1291      H1303   1.083       .  S
C1292      H1304   1.082       .  S
C1293      C1932   1.381       .  A
C1293      H1305   1.082       .  S
C1294      C1931   1.382       .  A
C1294      H1306   1.082       .  S
C1295      C1934   1.381       .  A
C1295      H1307   1.082       .  S
C1296      C1933   1.382       .  A
C1296      H1308   1.082       .  S
C1297      C1877   1.490       .  S
C1298      C1863   1.476       .  S
C1299      C1888   1.490       .  S
C1300      C1902   1.484       .  S
O1311     Ni1319   1.924       .  S
O1311      C1959   1.283       .  A
O1312     Ni1319   1.921   1_554  S
O1312      C1960   1.283       .  A
O1313     Ni1319   1.912   1_554  S
O1313      C1961   1.280       .  A
O1314     Ni1319   1.912       .  S
O1314      C1962   1.281       .  A
O1315     Ni1320   1.914       .  S
O1315      C1324   1.281       .  A
O1316     Ni1320   1.917   1_554  S
O1316      C1323   1.282       .  A
O1317     Ni1320   1.921   1_554  S
O1317      C1322   1.282       .  A
O1318     Ni1320   1.918       .  S
O1318      C1321   1.282       .  A
Ni1319    Ni1958   2.384       .  S
Ni1320    Ni1957   2.384       .  S
C1321      C1849   1.488       .  S
C1321      O1949   1.283       .  A
C1322      C1891   1.494       .  S
C1322      O1950   1.283       .  A
C1323      C1905   1.481       .  S
C1323      O1951   1.280       .  A
C1324      C1835   1.487       .  S
C1324      O1952   1.281       .  A
N1325      H1357   1.043       .  S
N1325      C1330   1.356       .  A
N1325      C1329   1.351       .  A
N1326      C1333   1.364       .  A
N1326      C1334   1.366       .  A
N1327      H1358   1.043       .  S
N1327      C1332   1.356       .  A
N1327      C1331   1.347       .  A
N1328      C1335   1.339       .  A
N1328      C1336   1.343       .  A
C1329      C1337   1.389       .  A
C1329      C1345   1.417       .  A
C1330      C1346   1.414       .  A
C1330      C1338   1.385       .  A
C1331      C1339   1.389       .  A
C1331      C1348   1.415       .  A
C1332      C1347   1.414       .  A
C1332      C1340   1.384       .  A
C1333      C1345   1.442       .  A
C1333      C1341   1.386       .  A
C1334      C1348   1.447       .  A
C1334      C1342   1.390       .  A
C1335      C1343   1.388       .  A
C1335      C1346   1.399       .  A
C1336      C1344   1.385       .  A
C1336      C1347   1.400       .  A
C1337      C1338   1.379       .  A
C1337      H1349   1.083       .  S
C1338      H1350   1.082       .  S
C1339      C1340   1.382       .  A
C1339      H1351   1.082       .  S
C1340      H1352   1.082       .  S
C1341      C1342   1.393       .  A
C1341      H1353   1.082       .  S
C1342      H1354   1.081       .  S
C1343      C1344   1.372       .  A
C1343      H1355   1.082       .  S
C1344      H1356   1.082       .  S
C1345      C1804   1.522       .  S
C1346      C1860   1.479       .  S
C1347      C1874   1.487       .  S
C1348      C1821   1.533       .  S
N1359      H1391   1.037       .  S
N1359      C1364   1.353       .  A
N1360      C1367   1.348       .  A
N1360      C1368   1.349       .  A
N1361      H1392   1.039       .  S
N1361      C1366   1.347       .  A
N1362      C1369   1.347       .  A
N1362      C1370   1.351       .  A
C1363      C1371   1.386       .  A
C1363      C1379   1.415       .  A
C1364      C1380   1.416   1_455  A
C1364      C1372   1.389       .  A
C1365      C1373   1.388       .  A
C1365      C1382   1.403       .  A
C1366      C1381   1.404   1_455  A
C1366      C1374   1.386       .  A
C1367      C2017   1.411       .  A
C1367      C1375   1.386       .  A
C1368      C1382   1.409       .  A
C1368      C1376   1.385       .  A
C1369      C1377   1.387       .  A
C1369      C2018   1.412       .  A
C1370      C1378   1.385       .  A
C1370      C1381   1.411       .  A
C1371      H1383   1.082       .  S
C1372      H1384   1.082       .  S
C1373      H1385   1.082       .  S
C1374      H1386   1.083       .  S
C1375      C1376   1.380       .  A
C1375      H2025   1.082       .  S
C1376      H1388   1.082       .  S
C1377      C1378   1.382       .  A
C1377      H2027   1.082       .  S
C1378      H1390   1.082       .  S
C1379      C2005   1.413       .  A
C1379      C1846   1.489       .  S
C1380      C2007   1.411       .  A
C1380      C1832   1.480       .  S
C1381      C1776   1.484       .  S
C1382      C1790   1.475       .  S
H1387      C2013   1.082       .  S
H1389      C2015   1.082       .  S
N1393      H1425   1.043       .  S
N1393      C1398   1.357       .  A
N1393      C1397   1.348       .  A
N1394      C1401   1.362       .  A
N1394      C1402   1.366       .  A
N1395      H1426   1.043       .  S
N1395      C1400   1.354       .  A
N1395      C1399   1.349       .  A
N1396      C1403   1.341       .  A
N1396      C1404   1.340       .  A
C1397      C1405   1.390       .  A
C1397      C1413   1.415       .  A
C1398      C1414   1.415       .  A
C1398      C1406   1.385       .  A
C1399      C1407   1.389       .  A
C1399      C1416   1.416       .  A
C1400      C1415   1.412       .  A
C1400      C1408   1.385       .  A
C1401      C1413   1.439       .  A
C1401      C1409   1.386       .  A
C1402      C1416   1.445       .  A
C1402      C1410   1.388       .  A
C1403      C1411   1.386       .  A
C1403      C1414   1.398       .  A
C1404      C1412   1.388       .  A
C1404      C1415   1.400       .  A
C1405      C1406   1.381       .  A
C1405      H1417   1.082       .  S
C1406      H1418   1.082       .  S
C1407      C1408   1.378       .  A
C1407      H1419   1.082       .  S
C1408      H1420   1.082       .  S
C1409      C1410   1.393       .  A
C1409      H1421   1.082       .  S
C1410      H1422   1.081       .  S
C1411      C1412   1.371       .  A
C1411      H1423   1.083       .  S
C1412      H1424   1.082       .  S
C1413      C1748   1.515       .  S
C1414      C1779   1.484       .  S
C1415      C1793   1.477       .  S
C1416      C1762   1.541       .  S
N1427      H1459   1.040       .  S
N1427      C1432   1.358       .  A
N1427      C1431   1.357       .  A
N1428      C1435   1.342       .  A
N1428      C1436   1.347       .  A
N1429      H1460   1.038       .  S
N1429      C1434   1.350       .  A
N1429      C1433   1.361       .  A
N1430      C1437   1.365       .  A
N1430      C1438   1.361       .  A
C1431      C1439   1.382       .  A
C1431      C1447   1.413       .  A
C1432      C1440   1.391       .  A
C1433      C1441   1.382       .  A
C1433      C1450   1.414       .  A
C1434      C1442   1.392       .  A
C1435      C1447   1.404       .  A
C1435      C1443   1.390       .  A
C1436      C1450   1.402       .  A
C1436      C1444   1.386       .  A
C1437      C1445   1.387       .  A
C1437      C1448   1.444       .  A
C1438      C1446   1.386       .  A
C1438      C1449   1.441       .  A
C1439      C1440   1.372       .  A
C1439      H1451   1.082       .  S
C1440      H1452   1.083       .  S
C1441      C1442   1.373       .  A
C1441      H1453   1.082       .  S
C1442      H1454   1.083       .  S
C1443      C1444   1.358       .  A
C1443      H1455   1.082       .  S
C1444      H1456   1.082       .  S
C1445      C1446   1.387       .  A
C1445      H1457   1.080       .  S
C1446      H1458   1.080       .  S
C1447      C1706   1.476       .  S
C1448      C1737   1.540       .  S
C1449      C1720   1.513       .  S
C1450      C1695   1.488       .  S
N1461      H1493   1.039       .  S
N1461      C1466   1.350       .  A
N1461      C1465   1.347       .  A
N1462      C2107   1.349       .  A
N1462      C2108   1.348       .  A
N1463      H1494   1.039       .  S
N1463      C1468   1.350       .  A
N1463      C1467   1.353       .  A
N1464      C1471   1.350       .  A
N1464      C1472   1.347       .  A
C1465      C1473   1.387       .  A
C1465      C2119   1.406       .  A
C1466      C1482   1.407       .  A
C1466      C1474   1.387       .  A
C1467      C1475   1.388       .  A
C1467      C2122   1.414       .  A
C1468      C1483   1.410       .  A
C1468      C1476   1.386       .  A
C1469      N2100   1.348       .  A
C1469      C1481   1.410       .  A
C1469      C1477   1.386       .  A
C1470      N2100   1.351       .  A
C1470      C1484   1.412       .  A
C1470      C1478   1.385       .  A
C1471      C1479   1.385       .  A
C1471      C1482   1.411       .  A
C1472      C1480   1.387       .  A
C1472      C1483   1.410       .  A
C1473      C1474   1.370       .  A
C1473      H1485   1.082       .  S
C1474      H1486   1.082       .  S
C1475      C1476   1.373       .  A
C1475      H1487   1.082       .  S
C1476      H1488   1.083       .  S
C1477      C1478   1.379       .  A
C1477      H1489   1.082       .  S
C1478      H1490   1.082       .  S
C1479      C1480   1.381       .  A
C1479      H1491   1.082       .  S
C1480      H1492   1.082       .  S
C1481      C2103   1.406   1_545  A
C1481      C1709   1.472       .  S
C1482      C1692   1.485       .  S
C1483      C1664   1.478       .  S
C1484      C2105   1.413   1_545  A
C1484      C1678   1.494       .  S
O1495     Ni1503   1.919       .  S
O1495      C1505   1.282       .  A
O1496     Ni1503   1.921       .  S
O1496      C1506   1.282       .  A
O1497     Ni1503   1.913       .  S
O1497      C1507   1.280       .  A
O1498     Ni1503   1.913       .  S
O1498      C1508   1.280       .  A
O1499     Ni1504   1.905       .  S
O1499      C1508   1.280       .  A
O1500     Ni1504   1.908       .  S
O1500      C1507   1.280       .  A
O1501     Ni1504   1.924       .  S
O1501      C1506   1.283       .  A
O1502     Ni1504   1.922       .  S
O1502      C1505   1.283       .  A
Ni1503    Ni1504   2.383       .  S
C1505      C1639   1.489       .  S
C1506      C1681   1.497       .  S
C1507      C1667   1.483       .  S
C1508      C1650   1.480       .  S
C1509      C1723   1.588       .  S
C1509      C1734   1.586       .  S
C1509      C1751   1.608       .  S
N1510      H1542   1.038       .  S
N1510      C1515   1.354       .  A
N1510      C1514   1.353       .  A
N1511      C2156   1.346       .  A
N1511      C2157   1.350       .  A
N1512      H1543   1.039       .  S
N1512      C1517   1.346       .  A
N1512      C1516   1.348       .  A
N1513      C1520   1.349       .  A
N1513      C1521   1.350       .  A
C1514      C1522   1.386       .  A
C1514      C2168   1.413       .  A
C1515      C1531   1.418       .  A
C1515      C1523   1.389       .  A
C1516      C1524   1.387       .  A
C1516      C2171   1.404       .  A
C1517      C1532   1.403       .  A
C1517      C1525   1.388       .  A
C1518      N2149   1.345       .  A
C1518      C1530   1.408       .  A
C1518      C1526   1.388       .  A
C1519      N2149   1.349       .  A
C1519      C1533   1.407       .  A
C1519      C1527   1.384       .  A
C1520      C1528   1.387       .  A
C1520      C1531   1.414       .  A
C1521      C1529   1.385       .  A
C1521      C1532   1.412       .  A
C1522      C1523   1.372       .  A
C1522      H1534   1.082       .  S
C1523      H1535   1.082       .  S
C1524      C1525   1.368       .  A
C1524      H1536   1.083       .  S
C1525      H1537   1.081       .  S
C1526      C1527   1.380       .  A
C1526      H1538   1.082       .  S
C1527      H1539   1.082       .  S
C1528      C1529   1.383       .  A
C1528      H1540   1.082       .  S
C1529      H1541   1.082       .  S
C1530      C2152   1.413       .  A
C1530      C1653   1.477       .  S
C1531      C1636   1.490       .  S
C1532      C1608   1.478       .  S
C1533      C2154   1.405       .  A
C1533      C1625   1.483       .  S
N1544      H1576   1.041       .  S
N1544      C1549   1.359       .  A
N1544      C1548   1.350       .  A
N1546      H1577   1.038       .  S
N1546      C1551   1.358       .  A
N1546      C1550   1.356       .  A
N1547      C1554   1.343       .  A
N1547      C1555   1.340       .  A
C1548      C1556   1.389       .  A
C1549      C1565   1.416       .  A
C1549      C1557   1.385       .  A
C1550      C1558   1.396       .  A
C1551      C1566   1.407       .  A
C1551      C1559   1.376       .  A
C1552      C1564   1.444       .  A
C1552      C1560   1.386       .  A
C1553      C1567   1.451       .  A
C1553      C1561   1.390       .  A
C1554      C1562   1.389       .  A
C1554      C1565   1.401       .  A
C1555      C1563   1.385       .  A
C1555      C1566   1.396       .  A
C1556      C1557   1.378       .  A
C1556      H1568   1.083       .  S
C1557      H1569   1.082       .  S
C1558      C1559   1.374       .  A
C1558      H1570   1.081       .  S
C1559      H1571   1.083       .  S
C1560      C1561   1.388       .  A
C1560      H1572   1.080       .  S
C1561      H1573   1.079       .  S
C1562      C1563   1.362       .  A
C1562      H1574   1.082       .  S
C1563      H1575   1.082       .  S
C1564      C1594   1.526       .  S
C1565      C1622   1.482       .  S
C1566      C1611   1.478       .  S
C1567      C1583   1.537       .  S
C1578      C1580   1.580       .  S
C1578      C1597   1.592       .  S
C1578      C1807   1.610       .  S
C1579      C1584   1.415       .  A
C1579      H1586   1.082       .  S
C1580      C1581   1.429       .  A
C1581      C1582   1.416       .  A
C1581      N1588   1.433       .  S
C1582      C1583   1.406       .  A
C1582      H1587   1.081       .  S
C1584      N1585   1.439       .  S
N1585      H1589   1.045       .  S
N1585      H1590   1.044       .  S
N1588      H1591   1.046       .  S
N1588      H1592   1.045       .  S
C1593      C1598   1.420       .  A
C1593      H1600   1.083       .  S
C1594      C1595   1.423       .  A
C1595      C1596   1.408       .  A
C1595      N1602   1.434   1_455  S
C1596      C2235   1.414       .  A
C1596      H2239   1.079       .  S
C1597      C2234   1.413       .  A
C1598      N1599   1.430       .  S
N1599      H1603   1.046       .  S
N1599      H1604   1.046       .  S
H1601      C2234   1.079       .  S
N1602      H1605   1.045       .  S
N1602      H1606   1.042       .  S
C1607      C1608   1.398       .  A
C1607      C1612   1.398       .  A
C1607      H1614   1.084       .  S
C1608      C1609   1.411       .  A
C1609      C1610   1.405       .  A
C1609      N1616   1.432       .  S
C1610      C1611   1.400       .  A
C1610      H1615   1.084       .  S
C1611      C1612   1.410       .  A
C1612      N1613   1.433       .  S
N1613      H1617   1.045       .  S
N1613      H1618   1.046       .  S
N1616      H1619   1.045       .  S
C1621      C1622   1.406       .  A
C1621      C1626   1.402       .  A
C1621      H1628   1.084       .  S
C1622      C1623   1.412       .  A
C1623      C1624   1.397       .  A
C1624      C1625   1.406       .  A
C1625      C1626   1.414       .  A
C1626      N1627   1.438       .  S
N1627      H1631   1.045       .  S
N1627      H2270   1.043       .  S
N1630      H1633   1.043       .  S
N1630      H1634   1.046       .  S
H1632      N2265   1.043       .  S
C1635      C1636   1.404       .  A
C1635      C1640   1.407       .  A
C1635      H1642   1.084       .  S
C1636      C1637   1.405       .  A
C1637      C1638   1.405       .  A
C1637      N1644   1.432       .  S
C1638      C1639   1.409       .  A
C1638      H1643   1.084       .  S
C1639      C1640   1.416       .  A
C1640      N1641   1.438       .  S
N1641      H1645   1.046       .  S
N1641      H1646   1.045       .  S
N1644      H1647   1.045       .  S
N1644      H1648   1.046       .  S
C1649      C1650   1.407       .  A
C1649      C1654   1.399       .  A
C1649      H1656   1.083       .  S
C1650      C1651   1.415       .  A
C1651      C1652   1.404       .  A
C1651      N1658   1.438       .  S
C1652      C1653   1.400       .  A
C1652      H1657   1.084       .  S
C1653      C1654   1.405       .  A
C1654      N1655   1.438       .  S
N1655      H1659   1.045       .  S
N1655      H2298   1.045       .  S
N1658      H1661   1.046       .  S
H1660      N2293   1.045       .  S
C1663      C1664   1.401       .  A
C1663      C1668   1.400       .  A
C1663      H1670   1.084       .  S
C1664      C1665   1.412       .  A
C1665      C1666   1.398       .  A
C1665      N1672   1.439       .  S
C1666      C1667   1.408       .  A
C1666      H1671   1.083       .  S
C1667      C1668   1.413       .  A
C1668      N1669   1.433       .  S
N1669      H1673   1.046       .  S
N1669      H1674   1.045       .  S
N1672      H1675   1.043       .  S
N1672      H1676   1.045       .  S
C1677      C1678   1.402       .  A
C1677      C1682   1.408       .  A
C1677      H1684   1.084       .  S
C1678      C1679   1.416       .  A
C1679      C1680   1.405       .  A
C1679      N1686   1.438       .  S
C1680      C1681   1.409       .  A
C1680      H1685   1.083       .  S
C1681      C1682   1.418       .  A
C1682      N1683   1.438       .  S
N1683      H1688   1.045       .  S
N1686      H1689   1.043       .  S
N1686      H1690   1.046       .  S
C1691      C1692   1.403       .  A
C1691      C1696   1.399       .  A
C1692      C1693   1.415       .  A
C1693      C1694   1.404       .  A
C1693      N1700   1.438       .  S
C1694      C1695   1.405       .  A
C1694      H1699   1.084       .  S
C1695      C1696   1.415       .  A
N1697      H1701   1.046       .  S
N1697      H1702   1.043       .  S
N1700      H1703   1.044       .  S
N1700      H1704   1.045       .  S
C1705      C1706   1.400       .  A
C1705      C1710   1.397       .  A
C1706      C1707   1.418       .  A
C1707      C1708   1.394       .  A
C1707      N1714   1.438       .  S
C1708      C1709   1.398       .  A
C1708      H1713   1.084       .  S
C1709      C1710   1.416       .  A
N1711      H1715   1.045       .  S
N1711      H1716   1.044       .  S
N1714      H1717   1.044       .  S
N1714      H1718   1.046       .  S
C1719      C1720   1.406       .  A
C1719      C1724   1.405       .  A
C1719      H1726   1.085   1_455  S
C1721      C1722   1.415       .  A
C1721      N1728   1.437       .  S
C1722      H1727   1.077       .  S
C1723      C1724   1.420       .  A
C1724      N1725   1.428   1_455  S
N1725      H1729   1.046       .  S
N1725      H1730   1.046       .  S
N1728      H1731   1.042       .  S
N1728      H1732   1.046       .  S
C1733      C2372   1.422   1_545  A
C1733      C1738   1.426       .  A
C1733      H1740   1.083       .  S
C1734      C2371   1.419       .  A
C1735      C2374   1.418       .  A
C1735      N1742   1.432       .  S
C1736      C2373   1.413       .  A
C1736      H1741   1.084       .  S
C1737      C1738   1.419       .  A
C1738      N1739   1.436       .  S
N1739      H1743   1.045       .  S
N1739      H1744   1.045   1_455  S
N1742      H1745   1.046       .  S
N1742      H1746   1.045       .  S
C1747      C1748   1.392       .  A
C1747      C1752   1.412       .  A
C1747      H1754   1.084       .  S
C1748      C1749   1.420       .  A
C1749      C1750   1.413       .  A
C1749      N1756   1.433       .  S
C1750      C1751   1.419   1_655  A
C1750      H1755   1.083   1_655  S
C1751      C1752   1.449   1_455  A
C1752      N1753   1.432       .  S
N1753      H1757   1.046       .  S
N1753      H1758   1.045       .  S
N1756      H1759   1.046       .  S
N1756      H1760   1.043       .  S
C1761      C1762   1.420       .  A
C1761      C1766   1.414       .  A
C1761      H1768   1.083       .  S
C1762      C1763   1.410       .  A
C1763      C1764   1.419       .  A
C1763      N1770   1.431       .  S
C1764      C1765   1.430       .  A
C1764      H1769   1.077       .  S
C1765      C1766   1.428       .  A
C1766      N1767   1.434       .  S
N1767      H1771   1.046       .  S
N1767      H1772   1.041       .  S
N1770      H1773   1.045       .  S
N1770      H1774   1.046       .  S
C1775      C1776   1.408       .  A
C1775      C1780   1.403       .  A
C1775      H1782   1.084       .  S
C1776      C1777   1.403       .  A
C1777      C1778   1.402       .  A
C1777      N1784   1.432       .  S
C1778      C1779   1.408       .  A
C1778      H1783   1.084       .  S
C1779      C1780   1.402       .  A
C1780      N1781   1.431       .  S
N1781      H1785   1.045       .  S
N1781      H1786   1.046       .  S
N1784      H1787   1.046       .  S
N1784      H1788   1.045       .  S
C1789      C1790   1.399       .  A
C1789      C1794   1.399       .  A
C1789      H2434   1.084       .  S
C1790      C1791   1.418       .  A
C1791      C1792   1.396       .  A
C1791      N1798   1.440       .  S
C1792      C1793   1.399       .  A
C1792      H1797   1.084       .  S
C1793      C1794   1.418       .  A
C1794      N1795   1.439       .  S
N1795      H2437   1.046       .  S
N1795      H1800   1.042       .  S
H1796      C2427   1.084       .  S
N1798      H1801   1.043       .  S
N1798      H1802   1.046       .  S
H1799      N2433   1.046   1_545  S
C1803      C1804   1.394       .  A
C1803      C1808   1.415       .  A
C1803      H1810   1.084       .  S
C1804      C1805   1.417       .  A
C1805      C1806   1.420   1_655  A
C1805      N1812   1.432       .  S
C1806      C1807   1.417       .  A
C1806      H1811   1.083       .  S
C1807      C1808   1.449   1_455  A
C1808      N1809   1.433       .  S
N1809      H1813   1.046       .  S
N1809      H1814   1.046       .  S
N1812      H1815   1.046       .  S
N1812      H1816   1.046   1_655  S
C1817      C1818   1.411       .  A
C1817      C1822   1.412       .  A
C1817      H1824   1.074       .  S
C1818      C1819   1.445       .  A
C1819      C1820   1.419       .  A
C1819      N1826   1.436       .  S
C1820      C1821   1.399       .  A
C1820      H1825   1.082       .  S
C1821      C1822   1.431       .  A
C1822      N1823   1.438       .  S
N1823      H1827   1.046       .  S
N1823      H1828   1.042       .  S
N1826      H1829   1.044       .  S
N1826      H1830   1.046       .  S
C1831      C1832   1.398       .  A
C1831      C1836   1.405       .  A
C1831      H1838   1.084       .  S
C1832      C2471   1.406       .  A
C1833      C2470   1.407       .  A
C1833      C1834   1.403       .  A
C1833      N1840   1.438       .  S
C1834      C2473   1.407       .  A
C1834      H1839   1.083       .  S
C1835      C2472   1.408       .  A
C1835      C1836   1.420       .  A
C1836      N1837   1.438   1_565  S
N1837      H1841   1.046       .  S
N1837      H1842   1.045       .  S
N1840      H1843   1.045       .  S
N1840      H1844   1.045       .  S
C1845      C1846   1.403       .  A
C1845      C1850   1.409       .  A
C1845      H2490   1.084       .  S
C1846      C1847   1.404       .  A
C1847      C1848   1.405       .  A
C1847      N1854   1.432   1_565  S
C1848      C1849   1.409       .  A
C1848      H1853   1.084       .  S
C1849      C1850   1.414       .  A
C1850      N1851   1.437       .  S
N1851      H2493   1.046       .  S
N1851      H1856   1.046       .  S
H1852      C2483   1.084       .  S
N1854      H1857   1.045       .  S
N1854      H1858   1.046       .  S
H1855      N2489   1.046       .  S
C1859      C1860   1.398       .  A
C1859      C1864   1.399       .  A
C1859      H1866   1.084       .  S
C1860      C1861   1.419       .  A
C1861      C1862   1.396       .  A
C1861      N1868   1.438       .  S
C1862      C1863   1.397       .  A
C1862      H1867   1.084       .  S
C1863      C1864   1.418       .  A
C1864      N2503   1.439   1_655  S
N1865      C2502   1.439   1_545  S
N1865      H1869   1.046   1_655  S
N1865      H1870   1.043   1_655  S
N1868      H1871   1.043       .  S
N1868      H1872   1.045       .  S
C1873      C1874   1.399       .  A
C1873      C1878   1.401       .  A
C1873      H2518   1.084       .  S
C1874      C1875   1.419       .  A
C1875      C1876   1.405       .  A
C1875      N1882   1.438       .  S
C1876      C1877   1.401       .  A
C1876      H1881   1.084       .  S
C1877      C1878   1.422       .  A
C1878      N2517   1.440       .  S
N1879      C2516   1.440   1_545  S
N1879      H1883   1.046       .  S
N1879      H1884   1.043   1_545  S
H1880      C2511   1.084   1_545  S
N1882      H1885   1.043       .  S
N1882      H1886   1.045       .  S
C1887      C1888   1.400       .  A
C1887      C1892   1.405       .  A
C1887      H2532   1.084       .  S
C1888      C1889   1.406       .  A
C1889      C1890   1.407       .  A
C1889      N1896   1.432       .  S
C1890      C1891   1.409       .  A
C1890      H1895   1.083       .  S
C1891      C1892   1.417       .  A
C1892      N2531   1.432       .  S
N1893      C2530   1.432       .  S
N1893      H1897   1.046       .  S
N1893      H1898   1.045       .  S
H1894      C2525   1.084       .  S
N1896      H1899   1.045   1_565  S
N1896      H1900   1.046   1_565  S
C1901      C1902   1.402       .  A
C1901      C1906   1.403       .  A
C1901      H1908   1.084       .  S
C1902      C1903   1.404       .  A
C1903      C1904   1.404       .  A
C1903      N1910   1.432       .  S
C1904      C1905   1.409       .  A
C1904      H1909   1.084       .  S
C1905      C1906   1.412       .  A
C1906      N1907   1.438       .  S
N1907      H1911   1.045   1_565  S
N1907      H1912   1.046       .  S
N1910      H2551   1.045       .  S
N1910      H2552   1.046       .  S
H1913      N2548   1.045       .  S
H1914      N2548   1.046       .  S
N1915      H1947   1.040       .  S
N1915      C1919   1.349       .  A
N1916      C1924   1.349       .  A
N1917      H1948   1.038       .  S
N1917      C1922   1.355       .  A
N1918      C1926   1.349       .  A
C1919      C1927   1.385       .  A
C1919      C1935   1.403       .  A
C1920      C1936   1.406   1_455  A
C1920      C1928   1.388       .  A
C1921      C1929   1.388       .  A
C1921      C1938   1.415       .  A
C1922      C1937   1.417   1_455  A
C1922      C1930   1.388       .  A
C1923      C1935   1.414       .  A
C1923      C1931   1.384       .  A
C1924      C1938   1.415       .  A
C1924      C1932   1.388       .  A
C1925      C1933   1.385       .  A
C1925      C1936   1.412       .  A
C1926      C1934   1.387       .  A
C1926      C1937   1.412       .  A
C1927      H1939   1.083       .  S
C1928      H1940   1.082       .  S
C1929      H1941   1.083       .  S
C1930      H1942   1.082       .  S
C1931      H1943   1.082       .  S
C1932      H1944   1.082       .  S
C1933      H1945   1.082       .  S
C1934      H1946   1.082       .  S
C1935      C2515   1.492       .  S
C1936      C2501   1.479       .  S
C1937      C2526   1.488       .  S
C1938      C2540   1.483       .  S
O1949     Ni1957   1.926       .  S
O1950     Ni1957   1.922   1_554  S
O1951     Ni1957   1.913   1_554  S
O1952     Ni1957   1.913       .  S
O1953     Ni1958   1.914       .  S
O1953      C1962   1.281       .  A
O1954     Ni1958   1.916   1_554  S
O1954      C1961   1.282       .  A
O1955     Ni1958   1.920   1_554  S
O1955      C1960   1.282       .  A
O1956     Ni1958   1.916       .  S
O1956      C1959   1.281       .  A
C1959      C2487   1.486       .  S
C1960      C2529   1.492       .  S
C1961      C2543   1.480       .  S
C1962      C2473   1.486       .  S
N1963      H1995   1.042   1_565  S
N1963      C1968   1.358       .  A
N1963      C1967   1.352       .  A
N1964      C1971   1.366       .  A
N1964      C1972   1.368       .  A
N1965      H1996   1.043   1_565  S
N1965      C1970   1.358       .  A
N1965      C1969   1.349       .  A
N1966      C1973   1.341       .  A
N1966      C1974   1.344       .  A
C1967      C1975   1.390       .  A
C1967      C1983   1.421       .  A
C1968      C1984   1.416       .  A
C1968      C1976   1.384       .  A
C1969      C1977   1.390       .  A
C1969      C1986   1.419       .  A
C1970      C1985   1.416       .  A
C1970      C1978   1.384       .  A
C1971      C1983   1.445       .  A
C1971      C1979   1.386   1_565  A
C1972      C1986   1.449       .  A
C1972      C1980   1.389   1_565  A
C1973      C1981   1.388   1_565  A
C1973      C1984   1.399       .  A
C1974      C1982   1.386   1_565  A
C1974      C1985   1.400       .  A
C1975      C1976   1.380       .  A
C1975      H1987   1.082       .  S
C1976      H1988   1.082       .  S
C1977      C1978   1.382       .  A
C1977      H1989   1.082       .  S
C1978      H1990   1.082       .  S
C1979      C1980   1.393       .  A
C1979      H1991   1.082       .  S
C1980      H1992   1.081       .  S
C1981      C1982   1.370       .  A
C1981      H1993   1.082       .  S
C1982      H1994   1.082       .  S
C1983      C2442   1.526       .  S
C1984      C2498   1.483       .  S
C1985      C2512   1.490       .  S
C1986      C2459   1.537       .  S
N1997      H2029   1.038       .  S
N1997      C2002   1.352       .  A
N1998      C2005   1.349       .  A
N1998      C2006   1.350       .  A
N1999      H2030   1.039       .  S
N1999      C2004   1.348       .  A
N2000      C2007   1.347       .  A
N2000      C2008   1.350       .  A
C2001      C2009   1.386       .  A
C2001      C2017   1.414       .  A
C2002      C2018   1.416   1_455  A
C2002      C2010   1.389       .  A
C2003      C2011   1.388       .  A
C2003      C2020   1.404       .  A
C2004      C2019   1.404   1_455  A
C2004      C2012   1.386       .  A
C2005      C2013   1.386       .  A
C2006      C2020   1.411       .  A
C2006      C2014   1.385       .  A
C2007      C2015   1.387       .  A
C2008      C2016   1.385       .  A
C2008      C2019   1.410       .  A
C2009      H2021   1.082       .  S
C2010      H2022   1.082       .  S
C2011      H2023   1.082       .  S
C2012      H2024   1.083       .  S
C2013      C2014   1.381       .  A
C2014      H2026   1.082       .  S
C2015      C2016   1.381       .  A
C2016      H2028   1.082       .  S
C2017      C2484   1.487       .  S
C2018      C2470   1.480       .  S
C2019      C2414   1.482       .  S
C2020      C2428   1.479       .  S
N2031      H2063   1.042       .  S
N2031      C2036   1.357       .  A
N2031      C2035   1.349       .  A
N2032      C2039   1.362       .  A
N2032      C2040   1.365       .  A
N2033      H2064   1.043       .  S
N2033      C2038   1.355       .  A
N2033      C2037   1.349       .  A
N2034      C2041   1.340       .  A
N2034      C2042   1.341       .  A
C2035      C2043   1.390       .  A
C2035      C2051   1.416       .  A
C2036      C2052   1.416       .  A
C2036      C2044   1.385       .  A
C2037      C2045   1.390       .  A
C2037      C2054   1.419       .  A
C2038      C2053   1.413       .  A
C2038      C2046   1.384       .  A
C2039      C2051   1.436       .  A
C2039      C2047   1.385       .  A
C2040      C2054   1.444       .  A
C2040      C2048   1.389       .  A
C2041      C2049   1.387       .  A
C2041      C2052   1.398       .  A
C2042      C2050   1.388       .  A
C2042      C2053   1.400       .  A
C2043      C2044   1.382       .  A
C2043      H2055   1.082       .  S
C2044      H2056   1.082       .  S
C2045      C2046   1.380       .  A
C2045      H2057   1.082       .  S
C2046      H2058   1.082       .  S
C2047      C2048   1.392       .  A
C2047      H2059   1.082       .  S
C2048      H2060   1.080       .  S
C2049      C2050   1.370       .  A
C2049      H2061   1.083       .  S
C2050      H2062   1.082       .  S
C2051      C2386   1.514       .  S
C2052      C2417   1.482       .  S
C2053      C2431   1.481       .  S
C2054      C2400   1.540       .  S
N2065      H2097   1.037       .  S
N2065      C2070   1.360       .  A
N2065      C2069   1.360       .  A
N2066      C2073   1.338       .  A
N2066      C2074   1.342       .  A
N2067      H2098   1.040       .  S
N2067      C2072   1.349       .  A
N2067      C2071   1.362       .  A
N2068      C2075   1.367       .  A
N2068      C2076   1.366       .  A
C2069      C2077   1.376       .  A
C2069      C2085   1.416       .  A
C2070      C2078   1.399       .  A
C2071      C2079   1.385       .  A
C2071      C2088   1.421       .  A
C2072      C2080   1.389       .  A
C2073      C2085   1.396       .  A
C2073      C2081   1.388       .  A
C2074      C2088   1.402       .  A
C2074      C2082   1.386       .  A
C2075      C2083   1.389       .  A
C2075      C2086   1.450       .  A
C2076      C2084   1.384       .  A
C2076      C2087   1.442       .  A
C2077      C2078   1.374       .  A
C2077      H2089   1.083       .  S
C2078      H2090   1.076       .  S
C2079      C2080   1.380       .  A
C2079      H2091   1.082       .  S
C2080      H2092   1.082       .  S
C2081      C2082   1.371       .  A
C2081      H2093   1.082       .  S
C2082      H2094   1.082       .  S
C2083      C2084   1.385       .  A
C2083      H2095   1.079       .  S
C2084      H2096   1.080       .  S
C2085      C2344   1.486       .  S
C2086      C2375   1.539       .  S
C2087      C2358   1.526       .  S
C2088      C2333   1.493       .  S
N2099      H2131   1.040       .  S
N2099      C2104   1.353       .  A
N2099      C2103   1.347       .  A
N2101      H2132   1.039       .  S
N2101      C2106   1.352       .  A
N2101      C2105   1.357       .  A
N2102      C2109   1.353       .  A
N2102      C2110   1.346       .  A
C2103      C2111   1.389       .  A
C2104      C2120   1.409       .  A
C2104      C2112   1.387       .  A
C2105      C2113   1.384       .  A
C2106      C2121   1.419       .  A
C2106      C2114   1.391       .  A
C2107      C2119   1.410       .  A
C2107      C2115   1.385       .  A
C2108      C2122   1.411       .  A
C2108      C2116   1.386       .  A
C2109      C2117   1.384       .  A
C2109      C2120   1.413       .  A
C2110      C2118   1.388       .  A
C2110      C2121   1.413       .  A
C2111      C2112   1.365       .  A
C2111      H2123   1.082       .  S
C2112      H2124   1.082       .  S
C2113      C2114   1.370       .  A
C2113      H2125   1.082   1_565  S
C2114      H2126   1.082       .  S
C2115      C2116   1.382       .  A
C2115      H2127   1.082       .  S
C2116      H2128   1.082       .  S
C2117      C2118   1.381       .  A
C2117      H2129   1.082       .  S
C2118      H2130   1.082       .  S
C2119      C2347   1.479       .  S
C2120      C2330   1.492       .  S
C2121      C2302   1.477       .  S
C2122      C2316   1.486       .  S
O2133     Ni2141   1.926       .  S
O2133      C2143   1.283       .  A
O2134     Ni2141   1.925       .  S
O2134      C2144   1.283       .  A
O2135     Ni2141   1.915       .  S
O2135      C2145   1.280       .  A
O2136     Ni2141   1.918       .  S
O2136      C2146   1.282       .  A
O2137     Ni2142   1.904       .  S
O2137      C2146   1.280       .  A
O2138     Ni2142   1.905       .  S
O2138      C2145   1.281       .  A
O2139     Ni2142   1.909       .  S
O2139      C2144   1.281       .  A
O2140     Ni2142   1.911       .  S
O2140      C2143   1.281       .  A
Ni2141    Ni2142   2.385       .  S
C2143      C2277   1.483       .  S
C2144      C2319   1.489       .  S
C2145      C2305   1.479       .  S
C2146      C2288   1.484       .  S
C2147      C2361   1.590       .  S
C2147      C2372   1.588       .  S
C2147      C2389   1.603   1_455  S
N2148      H2180   1.039       .  S
N2148      C2153   1.354       .  A
N2148      C2152   1.353   1_565  A
N2150      H2181   1.039       .  S
N2150      C2155   1.348       .  A
N2150      C2154   1.349   1_565  A
N2151      C2158   1.350       .  A
N2151      C2159   1.350       .  A
C2152      C2160   1.387   1_545  A
C2153      C2169   1.414       .  A
C2153      C2161   1.388       .  A
C2154      C2162   1.385       .  A
C2155      C2170   1.408       .  A
C2155      C2163   1.390       .  A
C2156      C2168   1.410       .  A
C2156      C2164   1.388       .  A
C2157      C2171   1.409       .  A
C2157      C2165   1.384       .  A
C2158      C2166   1.386       .  A
C2158      C2169   1.413       .  A
C2159      C2167   1.386       .  A
C2159      C2170   1.412       .  A
C2160      C2161   1.370       .  A
C2160      H2172   1.082   1_565  S
C2161      H2173   1.082       .  S
C2162      C2163   1.364   1_545  A
C2162      H2174   1.083       .  S
C2163      H2175   1.080       .  S
C2164      C2165   1.380       .  A
C2164      H2176   1.082       .  S
C2165      H2177   1.082       .  S
C2166      C2167   1.381       .  A
C2166      H2178   1.082       .  S
C2167      H2179   1.082       .  S
C2168      C2291   1.480       .  S
C2169      C2274   1.488       .  S
C2170      C2246   1.476       .  S
C2171      C2263   1.482       .  S
N2182      H2214   1.040       .  S
N2182      C2187   1.358       .  A
N2182      C2186   1.347       .  A
N2184      H2215   1.038       .  S
N2184      C2189   1.358       .  A
N2184      C2188   1.357       .  A
N2185      C2192   1.345       .  A
N2185      C2193   1.341       .  A
C2186      C2194   1.389       .  A
C2187      C2203   1.412       .  A
C2187      C2195   1.384       .  A
C2188      C2196   1.393       .  A
C2189      C2204   1.412       .  A
C2189      C2197   1.380       .  A
C2190      C2202   1.443       .  A
C2190      C2198   1.385       .  A
C2191      C2205   1.450       .  A
C2191      C2199   1.390       .  A
C2192      C2200   1.387       .  A
C2192      C2203   1.401       .  A
C2193      C2201   1.389       .  A
C2193      C2204   1.402       .  A
C2194      C2195   1.375       .  A
C2194      H2206   1.083       .  S
C2195      H2207   1.082       .  S
C2196      C2197   1.374       .  A
C2196      H2208   1.082       .  S
C2197      H2209   1.082       .  S
C2198      C2199   1.389       .  A
C2198      H2210   1.080       .  S
C2199      H2211   1.079       .  S
C2200      C2201   1.361       .  A
C2200      H2212   1.082       .  S
C2201      H2213   1.082       .  S
C2202      C2232   1.520       .  S
C2203      C2260   1.481       .  S
C2204      C2249   1.476       .  S
C2205      C2221   1.540       .  S
C2216      C2218   1.583       .  S
C2216      C2235   1.597   1_565  S
C2216      C2445   1.616       .  S
C2217      C2222   1.415       .  A
C2217      H2224   1.082       .  S
C2218      C2219   1.429       .  A
C2219      C2220   1.418       .  A
C2219      N2226   1.433       .  S
C2220      C2221   1.408       .  A
C2220      H2225   1.081       .  S
C2222      N2223   1.439       .  S
N2223      H2227   1.045       .  S
N2223      H2228   1.044       .  S
N2226      H2229   1.046       .  S
N2226      H2230   1.045       .  S
C2231      C2236   1.417       .  A
C2231      H2238   1.082       .  S
C2232      C2233   1.423       .  A
C2233      C2234   1.407       .  A
C2233      N2240   1.434   1_455  S
C2236      N2237   1.430       .  S
N2237      H2241   1.046       .  S
N2237      H2242   1.046       .  S
N2240      H2243   1.045       .  S
N2240      H2244   1.043   1_655  S
C2245      C2246   1.399       .  A
C2245      C2250   1.395       .  A
C2245      H2252   1.084       .  S
C2246      C2247   1.409       .  A
C2247      C2248   1.404       .  A
C2247      N2254   1.432       .  S
C2248      C2249   1.402       .  A
C2248      H2253   1.083       .  S
C2249      C2250   1.408       .  A
C2250      N2251   1.433       .  S
N2251      H2255   1.045       .  S
N2251      H2256   1.046       .  S
N2254      H2257   1.045       .  S
C2259      C2260   1.405       .  A
C2259      C2264   1.402       .  A
C2259      H2266   1.084       .  S
C2260      C2261   1.412       .  A
C2261      C2262   1.396       .  A
C2262      C2263   1.405       .  A
C2263      C2264   1.414       .  A
C2264      N2265   1.438       .  S
N2265      H2269   1.045       .  S
N2268      H2271   1.043       .  S
N2268      H2272   1.046       .  S
C2273      C2274   1.405       .  A
C2273      C2278   1.409       .  A
C2273      H2280   1.084       .  S
C2274      C2275   1.404       .  A
C2275      C2276   1.401       .  A
C2275      N2282   1.432       .  S
C2276      C2277   1.407       .  A
C2276      H2281   1.084       .  S
C2277      C2278   1.413       .  A
C2278      N2279   1.437       .  S
N2279      H2283   1.046       .  S
N2279      H2284   1.045       .  S
N2282      H2285   1.045       .  S
N2282      H2286   1.046       .  S
C2287      C2288   1.408       .  A
C2287      C2292   1.401       .  A
C2287      H2294   1.083       .  S
C2288      C2289   1.415       .  A
C2289      C2290   1.405       .  A
C2289      N2296   1.438       .  S
C2290      C2291   1.402       .  A
C2290      H2295   1.084       .  S
C2291      C2292   1.405       .  A
C2292      N2293   1.438       .  S
N2293      H2297   1.045       .  S
N2296      H2299   1.046       .  S
C2301      C2302   1.402       .  A
C2301      C2306   1.403       .  A
C2301      H2308   1.084       .  S
C2302      C2303   1.414       .  A
C2303      C2304   1.395       .  A
C2303      N2310   1.440       .  S
C2304      C2305   1.406       .  A
C2304      H2309   1.084       .  S
C2305      C2306   1.411       .  A
C2306      N2307   1.432       .  S
N2307      H2311   1.046       .  S
N2307      H2312   1.045       .  S
N2310      H2313   1.043       .  S
N2310      H2314   1.046       .  S
C2315      C2316   1.404       .  A
C2315      C2320   1.408       .  A
C2315      H2322   1.084       .  S
C2316      C2317   1.413       .  A
C2317      C2318   1.399       .  A
C2317      N2324   1.439       .  S
C2318      C2319   1.408       .  A
C2318      H2323   1.084       .  S
C2319      C2320   1.415       .  A
C2320      N2321   1.437       .  S
N2321      H2326   1.045       .  S
N2324      H2327   1.042       .  S
N2324      H2328   1.046       .  S
C2329      C2330   1.407       .  A
C2329      C2334   1.404       .  A
C2330      C2331   1.417       .  A
C2331      C2332   1.404       .  A
C2331      N2338   1.438       .  S
C2332      C2333   1.405       .  A
C2332      H2337   1.083       .  S
C2333      C2334   1.415       .  A
N2335      H2339   1.046       .  S
N2335      H2340   1.044       .  S
N2338      H2341   1.043       .  S
N2338      H2342   1.045       .  S
C2343      C2344   1.399       .  A
C2343      C2348   1.401       .  A
C2344      C2345   1.422       .  A
C2345      C2346   1.398       .  A
C2345      N2352   1.439       .  S
C2346      C2347   1.397       .  A
C2346      H2351   1.084       .  S
C2347      C2348   1.418       .  A
N2349      H2353   1.045       .  S
N2349      H2354   1.044       .  S
N2352      H2355   1.042       .  S
N2352      H2356   1.045       .  S
C2357      C2358   1.408       .  A
C2357      C2362   1.406       .  A
C2357      H2364   1.084   1_455  S
C2359      C2360   1.419       .  A
C2359      N2366   1.437       .  S
C2360      H2365   1.078       .  S
C2361      C2362   1.421       .  A
C2362      N2363   1.429   1_455  S
N2363      H2367   1.046       .  S
N2363      H2368   1.046       .  S
N2366      H2369   1.042       .  S
N2366      H2370   1.046       .  S
C2371      C2376   1.424       .  A
C2371      H2378   1.083       .  S
C2373      N2380   1.432   1_545  S
C2374      H2379   1.084       .  S
C2375      C2376   1.419       .  A
C2376      N2377   1.437   1_455  S
N2377      H2381   1.045       .  S
N2377      H2382   1.046       .  S
N2380      H2383   1.046       .  S
N2380      H2384   1.045       .  S
C2385      C2386   1.395       .  A
C2385      C2390   1.415       .  A
C2385      H2392   1.084       .  S
C2386      C2387   1.417       .  A
C2387      C2388   1.412       .  A
C2387      N2394   1.433       .  S
C2388      C2389   1.419       .  A
C2388      H2393   1.083   1_655  S
C2389      C2390   1.446       .  A
C2390      N2391   1.432   1_565  S
N2391      H2395   1.046       .  S
N2391      H2396   1.046   1_545  S
N2394      H2397   1.046       .  S
N2394      H2398   1.043       .  S
C2399      C2400   1.418       .  A
C2399      C2404   1.411       .  A
C2399      H2406   1.083       .  S
C2400      C2401   1.411       .  A
C2401      C2402   1.418       .  A
C2401      N2408   1.431       .  S
C2402      C2403   1.428       .  A
C2402      H2407   1.078       .  S
C2403      C2404   1.430       .  A
C2404      N2405   1.434       .  S
N2405      H2409   1.047       .  S
N2405      H2410   1.040       .  S
N2408      H2411   1.045   1_565  S
N2408      H2412   1.046       .  S
C2413      C2414   1.408       .  A
C2413      C2418   1.402       .  A
C2413      H2420   1.084       .  S
C2414      C2415   1.403       .  A
C2415      C2416   1.401       .  A
C2415      N2422   1.432       .  S
C2416      C2417   1.407       .  A
C2416      H2421   1.084       .  S
C2417      C2418   1.402       .  A
C2418      N2419   1.431       .  S
N2419      H2423   1.045       .  S
N2419      H2424   1.046       .  S
N2422      H2425   1.046   1_565  S
N2422      H2426   1.045       .  S
C2427      C2428   1.400       .  A
C2427      C2432   1.400       .  A
C2428      C2429   1.418       .  A
C2429      C2430   1.398       .  A
C2429      N2436   1.440       .  S
C2430      C2431   1.400       .  A
C2430      H2435   1.084       .  S
C2431      C2432   1.419       .  A
C2432      N2433   1.438       .  S
N2433      H2438   1.042       .  S
N2436      H2439   1.043       .  S
N2436      H2440   1.046       .  S
C2441      C2442   1.395       .  A
C2441      C2446   1.417       .  A
C2441      H2448   1.084       .  S
C2442      C2443   1.417   1_565  A
C2443      C2444   1.423   1_655  A
C2443      N2450   1.432       .  S
C2444      C2445   1.419   1_545  A
C2444      H2449   1.083       .  S
C2445      C2446   1.449   1_455  A
C2446      N2447   1.433       .  S
N2447      H2451   1.046       .  S
N2447      H2452   1.046       .  S
N2450      H2453   1.046       .  S
N2450      H2454   1.046       .  S
C2455      C2456   1.413       .  A
C2455      C2460   1.414       .  A
C2455      H2462   1.072       .  S
C2456      C2457   1.447       .  A
C2457      C2458   1.423       .  A
C2457      N2464   1.436       .  S
C2458      C2459   1.401       .  A
C2458      H2463   1.082       .  S
C2459      C2460   1.430       .  A
C2460      N2461   1.438   1_565  S
N2461      H2465   1.046   1_545  S
N2461      H2466   1.042       .  S
N2464      H2467   1.044       .  S
N2464      H2468   1.046       .  S
C2469      C2470   1.398       .  A
C2469      C2474   1.405       .  A
C2469      H2476   1.084       .  S
C2471      C2472   1.403       .  A
C2471      N2478   1.438       .  S
C2472      H2477   1.083       .  S
C2473      C2474   1.419       .  A
C2474      N2475   1.438       .  S
N2475      H2479   1.046       .  S
N2475      H2480   1.045       .  S
N2478      H2481   1.045       .  S
N2478      H2482   1.045       .  S
C2483      C2484   1.403       .  A
C2483      C2488   1.408       .  A
C2484      C2485   1.404       .  A
C2485      C2486   1.404       .  A
C2485      N2492   1.432       .  S
C2486      C2487   1.409       .  A
C2486      H2491   1.084       .  S
C2487      C2488   1.414       .  A
C2488      N2489   1.437       .  S
N2489      H2494   1.046       .  S
N2492      H2495   1.045       .  S
N2492      H2496   1.046       .  S
C2497      C2498   1.399       .  A
C2497      C2502   1.400       .  A
C2497      H2504   1.084   1_565  S
C2498      C2499   1.420       .  A
C2499      C2500   1.398       .  A
C2499      N2506   1.438       .  S
C2500      C2501   1.398       .  A
C2500      H2505   1.084       .  S
C2501      C2502   1.419       .  A
N2503      H2507   1.046       .  S
N2503      H2508   1.043       .  S
N2506      H2509   1.044       .  S
N2506      H2510   1.045       .  S
C2511      C2512   1.400       .  A
C2511      C2516   1.402       .  A
C2512      C2513   1.420       .  A
C2513      C2514   1.406       .  A
C2513      N2520   1.438       .  S
C2514      C2515   1.401       .  A
C2514      H2519   1.084       .  S
C2515      C2516   1.422       .  A
N2517      H2521   1.046       .  S
N2517      H2522   1.043       .  S
N2520      H2523   1.043       .  S
N2520      H2524   1.045       .  S
C2525      C2526   1.400       .  A
C2525      C2530   1.404       .  A
C2526      C2527   1.406       .  A
C2527      C2528   1.406       .  A
C2527      N2534   1.432       .  S
C2528      C2529   1.409       .  A
C2528      H2533   1.083       .  S
C2529      C2530   1.416       .  A
N2531      H2535   1.046       .  S
N2531      H2536   1.046       .  S
N2534      H2537   1.045       .  S
N2534      H2538   1.046       .  S
C2539      C2540   1.402       .  A
C2539      C2544   1.403       .  A
C2539      H2546   1.084       .  S
C2540      C2541   1.403       .  A
C2541      C2542   1.403       .  A
C2541      N2548   1.432       .  S
C2542      C2543   1.409       .  A
C2542      H2547   1.084       .  S
C2543      C2544   1.412       .  A
C2544      N2545   1.438       .  S
N2545      H2549   1.046       .  S
N2545      H2550   1.046       .  S
