geometry optimzed in LAMMPS
_audit_creation_date              2020-11-30 
_audit_creation_method            'lammps2cif' 
_symmetry_space_group_name_H-M    'P1' 
_symmetry_Int_Tables_number       1 
_symmetry_cell_setting            triclinic 
loop_ 
_symmetry_equiv_pos_as_xyz 
  x,y,z 
_cell_length_a                    48.32367796 
_cell_length_b                    49.52953614083316 
_cell_length_c                    50.57272007414436 
_cell_angle_alpha                 90.05331399683645 
_cell_angle_beta                  89.66916041858174 
_cell_angle_gamma                 89.89346426971849 
loop_ 
_atom_site_label 
_atom_site_type_symbol 
_atom_site_fract_x 
_atom_site_fract_y 
_atom_site_fract_z 
_atom_site_charge 
C1          C  0.26255369  0.86818949  0.97432910     0.03500
C2          C  0.26038877  0.89651532  0.97315961    -0.12600
C3          C  0.26614382  0.91254792  0.99562531     0.01000
C4          C  0.27492743  0.89940451  0.01888650    -0.11100
C5          C  0.27501860  0.87109280  0.02090480     0.03500
C6          C  0.26854450  0.85576536  0.99847856    -0.10600
H7          H  0.25427049  0.90574418  0.95471155     0.09100
H8          H  0.28156139  0.91111439  0.03575798     0.06700
H9          H  0.26872341  0.83392087  0.99958855     0.06500
C10         C  0.80714609  0.98815677  0.02218470     0.03500
C11         C  0.80969225  0.00100037  0.99774261    -0.12600
C12         C  0.80896592  0.98605374  0.97436106     0.01000
C13         C  0.80528803  0.95794915  0.97556151    -0.11100
C14         C  0.80371177  0.94406128  0.00014577     0.03500
C15         C  0.80488007  0.95994192  0.02342844    -0.10600
H16         H  0.81138081  0.02281162  0.99688605     0.09100
H17         H  0.80339659  0.94761091  0.95691692     0.06700
H18         H  0.80365741  0.95105200  0.04283747     0.06500
C19         C  0.98748933  0.94104338  0.30383197     0.03500
C20         C  0.97488489  0.91571358  0.30225933    -0.12600
C21         C  0.99108161  0.89232543  0.30044788     0.01000
C22         C  0.01999923  0.89439901  0.29966225    -0.11100
C23         C  0.03345620  0.91972497  0.30190415     0.03500
C24         C  0.01643134  0.94288948  0.30450248    -0.10600
H25         H  0.95251424  0.91423263  0.30189370     0.09100
H26         H  0.03130555  0.87584387  0.29691625     0.06700
H27         H  0.02500553  0.96281989  0.30673255     0.06500
C28         C  0.10908685  0.89438851  0.70014719     0.03500
C29         C  0.08025650  0.89721341  0.70184814    -0.12600
C30         C  0.06806718  0.92251592  0.70802562     0.01000
C31         C  0.08583991  0.94470989  0.71246594    -0.11100
C32         C  0.11461041  0.94201822  0.70961839     0.03500
C33         C  0.12594018  0.91692358  0.70325540    -0.10600
H34         H  0.06778243  0.87955867  0.69810749     0.09100
H35         H  0.07772242  0.96409192  0.71860066     0.06700
H36         H  0.14821982  0.91471348  0.70153692     0.06500
C37         C  0.07741065  0.64388998  0.05179574     0.03500
C38         C  0.05514191  0.65491477  0.06595789    -0.12600
C39         C  0.02906428  0.65723614  0.05460750     0.01000
C40         C  0.02572600  0.65156986  0.02774319    -0.11100
C41         C  0.04779779  0.64107130  0.01251825     0.03500
C42         C  0.07322456  0.63595641  0.02531651    -0.10600
H43         H  0.05785666  0.66135984  0.08623503     0.09100
H44         H  0.00580765  0.65581374  0.01906100     0.06700
H45         H  0.09001976  0.62629055  0.01469642     0.06500
C46         C  0.01571992  0.21055341  0.93790221     0.03500
C47         C  0.01810709  0.20835682  0.96552350    -0.12600
C48         C  0.04422611  0.20406287  0.97731195     0.01000
C49         C  0.06771801  0.20248871  0.96076397    -0.11100
C50         C  0.06544975  0.20601176  0.93350732     0.03500
C51         C  0.03954401  0.20962243  0.92208820    -0.10600
H52         H  0.99957159  0.21003547  0.97751868     0.09100
H53         H  0.08802198  0.19842061  0.96873046     0.06700
H54         H  0.03792577  0.21160195  0.90079992     0.06500
C55         C  0.79164341  0.87147951  0.02604508     0.03500
C56         C  0.79383776  0.85672710  0.00262481    -0.12600
C57         C  0.79973324  0.86959632  0.97876595     0.01000
C58         C  0.80373358  0.89759119  0.97831601    -0.11100
C59         C  0.80045750  0.91356943  0.00139073     0.03500
C60         C  0.79424181  0.89977830  0.02541632    -0.10600
H61         H  0.79116743  0.83499227  0.00302183     0.09100
H62         H  0.80970040  0.90621238  0.95959734     0.06700
H63         H  0.79137645  0.91035893  0.04385874     0.06500
C64         C  0.26539747  0.98592750  0.97154965     0.03500
C65         C  0.26732888  0.95759224  0.97160090    -0.12600
C66         C  0.26326463  0.94277707  0.99514458     0.01000
C67         C  0.25703579  0.95722144  0.01860774    -0.11100
C68         C  0.25634404  0.98558820  0.01890582     0.03500
C69         C  0.26016132  0.99968113  0.99522827    -0.10600
H70         H  0.27261606  0.94740758  0.95331932     0.09100
H71         H  0.25312714  0.94664613  0.03694960     0.06700
H72         H  0.25957566  0.02156721  0.99528754     0.06500
C73         C  0.99556438  0.95404144  0.70814206     0.03500
C74         C  0.02442114  0.95128651  0.70644067    -0.12600
C75         C  0.03717713  0.92574934  0.70993736     0.01000
C76         C  0.01991940  0.90325359  0.71485823    -0.11100
C77         C  0.99108745  0.90610468  0.71545739     0.03500
C78         C  0.97909891  0.93142624  0.71240048    -0.10600
H79         H  0.03646410  0.96907885  0.70193313     0.09100
H80         H  0.02844133  0.88339788  0.71833760     0.06700
H81         H  0.95675298  0.93352413  0.71315699     0.06500
C82         C  0.11058523  0.90064528  0.29856079     0.03500
C83         C  0.08182470  0.89876763  0.30157211    -0.12600
C84         C  0.06471756  0.92203603  0.30074709     0.01000
C85         C  0.07805904  0.94740408  0.29780240    -0.11100
C86         C  0.10697726  0.94927827  0.29627147     0.03500
C87         C  0.12306175  0.92590937  0.29649886    -0.10600
H88         H  0.07346397  0.87877666  0.30395632     0.09100
H89         H  0.06664048  0.96601285  0.29607838     0.06700
H90         H  0.14534430  0.92734020  0.29424338     0.06500
C91         C  0.01454126  0.63290352  0.94470821     0.03500
C92         C  0.01809572  0.63301873  0.97216231    -0.12600
C93         C  0.04454428  0.63691582  0.98331993     0.01000
C94         C  0.06751910  0.63904847  0.96603290    -0.11100
C95         C  0.06407967  0.63749969  0.93854177     0.03500
C96         C  0.03757757  0.63476469  0.92801363    -0.10600
H97         H  0.99990985  0.63072474  0.98449811     0.09100
H98         H  0.08808379  0.64259520  0.97359096     0.06700
H99         H  0.03482663  0.63462518  0.90674825     0.06500
C100        C  0.07588374  0.20336237  0.04615337     0.03500
C101        C  0.07237240  0.20780850  0.01910255    -0.12600
C102        C  0.04726447  0.20097981  0.00655951     0.01000
C103        C  0.02554288  0.19039537  0.02214555    -0.11100
C104        C  0.02855334  0.18743741  0.04958510     0.03500
C105        C  0.05382376  0.19385669  0.06136463    -0.10600
H106        H  0.08948744  0.21636205  0.00810561     0.09100
H107        H  0.00634005  0.18409283  0.01316647     0.06700
H108        H  0.05647221  0.19117268  0.08248074     0.06500
C109        C  0.49121381  0.39405596  0.81117946     0.03500
C110        C  0.51974520  0.39753066  0.80811101    -0.12600
C111        C  0.53042324  0.42143269  0.79688125     0.01000
C112        C  0.51175084  0.44188763  0.78941534    -0.11100
C113        C  0.48336841  0.43953504  0.79498082     0.03500
C114        C  0.47347374  0.41574384  0.80652144    -0.10600
H115        H  0.53313218  0.38088904  0.81335544     0.09100
H116        H  0.51905857  0.45951180  0.77887912     0.06700
H117        H  0.45147003  0.41326688  0.81000796     0.06500
C118        C  0.48817201  0.40381451  0.18820859     0.03500
C119        C  0.47655709  0.42915922  0.18366412    -0.12600
C120        C  0.49341853  0.45144503  0.17870075     0.01000
C121        C  0.52216834  0.44801153  0.17743582    -0.11100
C122        C  0.53457620  0.42306839  0.18409812     0.03500
C123        C  0.51701609  0.40085163  0.18925230    -0.10600
H124        H  0.45427117  0.43163968  0.18468468     0.09100
H125        H  0.53453701  0.46538351  0.17223777     0.06700
H126        H  0.52529848  0.38138215  0.19476672     0.06500
C127        C  0.33591156  0.36806137  0.51917535     0.03500
C128        C  0.33508954  0.39633308  0.51904332    -0.12600
C129        C  0.33700482  0.41096183  0.49513643     0.01000
C130        C  0.33886306  0.39607024  0.47120976    -0.11100
C131        C  0.33813151  0.36771713  0.47127601     0.03500
C132        C  0.33715029  0.35388927  0.49531162    -0.10600
H133        H  0.33267038  0.40651187  0.53781728     0.09100
H134        H  0.34085105  0.40605624  0.45231868     0.06700
H135        H  0.33680432  0.33199825  0.49544469     0.06500
Zr136      Zr  0.25546613  0.15506360  0.76800668     2.17500
O137        O  0.20506215  0.15200470  0.76850628    -0.50900
O138        O  0.26202333  0.12322345  0.80430895    -0.74100
O139        O  0.23935945  0.11431493  0.74758319    -0.80900
O140        O  0.25052725  0.21902780  0.80937372    -0.82700
O141        O  0.27229660  0.09909252  0.71935561    -0.78300
O142        O  0.22852037  0.17960321  0.80013328    -0.89900
O143        O  0.30817975  0.11794875  0.81075700    -0.75900
O144        O  0.29636120  0.13066643  0.75734175    -0.85400
O145        O  0.29067362  0.17419618  0.79458504    -0.85100
O146        O  0.26142060  0.16108390  0.72113848    -0.71800
O147        O  0.25655174  0.20169985  0.75551602    -0.83900
Zr148      Zr  0.34170612  0.20298966  0.72499265     2.26400
Zr149      Zr  0.30338929  0.13722045  0.71100692     2.06300
Zr150      Zr  0.29238654  0.22061282  0.78186385     2.10000
Zr151      Zr  0.33186529  0.15030325  0.78309172     1.78800
O152        O  0.27101812  0.26470489  0.77561718    -0.92800
O153        O  0.35628115  0.10791036  0.77570907    -0.40600
O154        O  0.33434168  0.19682258  0.77141194    -0.77200
O155        O  0.34014491  0.15606104  0.73678948    -0.95900
O156        O  0.30640357  0.18373546  0.69833534    -0.89200
O157        O  0.30071537  0.22781338  0.73555428    -0.92000
C158        C  0.28286723  0.11215829  0.81569827     1.01700
C159        C  0.23047603  0.20221309  0.81221899     1.14700
C160        C  0.24955286  0.09616969  0.73240759     1.05400
O161        O  0.32831509  0.09472722  0.70617571    -0.94200
O162        O  0.34280383  0.13980711  0.68076036    -0.89900
O163        O  0.36688229  0.17762183  0.69151660    -0.83100
C164        C  0.36334931  0.15602583  0.67790891     1.12100
O165        O  0.21507868  0.21019430  0.70796129    -0.96200
Zr166      Zr  0.26541755  0.20790385  0.70920361     1.88900
O167        O  0.33579022  0.23695934  0.69096816    -0.72800
O168        O  0.28051032  0.13224339  0.66849921    -0.52100
O169        O  0.24853418  0.19023187  0.66735744    -0.96700
O170        O  0.24562047  0.25324189  0.70978782    -0.54000
O171        O  0.29129357  0.23444637  0.67713962    -0.73300
C172        C  0.31611932  0.24343673  0.67530966     0.99000
O173        O  0.39122482  0.20938413  0.71752586    -0.62100
O174        O  0.30575275  0.23079246  0.82715671    -0.56900
O175        O  0.36321484  0.23557037  0.75445851    -0.93600
O176        O  0.33252819  0.24938814  0.78594347    -0.92100
O177        O  0.34495034  0.16442730  0.82745757    -0.92400
O178        O  0.38182540  0.15373093  0.78753094    -0.91200
C179        C  0.35623359  0.25003063  0.77447617     1.17900
H180        H  0.28636335  0.17239545  0.81317936     0.33800
H181        H  0.35744633  0.14730206  0.73241041     0.44700
H182        H  0.30301511  0.24682625  0.73191822     0.38200
H183        H  0.24606493  0.15315599  0.71179403     0.34700
H184        H  0.35876197  0.10009842  0.79355440     0.26500
H185        H  0.29015508  0.11689031  0.65991496     0.32400
H186        H  0.26542663  0.18466421  0.65762388     0.38300
H187        H  0.32945935  0.15874356  0.83906283     0.32800
H188        H  0.29170366  0.24377271  0.83373198     0.31600
H189        H  0.28269662  0.27729454  0.78586078     0.33300
H190        H  0.24084395  0.25703873  0.69113218     0.32300
H191        H  0.38815020  0.16185176  0.77066472     0.36300
H192        H  0.39389163  0.22891820  0.71423753     0.29000
H193        H  0.20054683  0.13483121  0.77753164     0.33300
H194        H  0.20889071  0.19127640  0.71012656     0.36100
H195        H  0.30218529  0.21396419  0.83713122     0.28700
H196        H  0.40031261  0.20575274  0.73466625     0.41600
H197        H  0.34524069  0.09700977  0.71688117     0.31600
H198        H  0.34250602  0.09608714  0.76711521     0.39300
H199        H  0.26126715  0.26549635  0.71354427     0.31100
H200        H  0.26182817  0.12524910  0.67273246     0.31200
H201        H  0.19957923  0.14926583  0.74986344     0.31400
C202        C  0.81313035  0.36604316  0.47210137     0.03500
C203        C  0.81363861  0.39448787  0.47237425    -0.12600
C204        C  0.80490058  0.40919784  0.49506523     0.01000
C205        C  0.79549713  0.39414239  0.51726972    -0.11100
C206        C  0.79627993  0.36577098  0.51748193     0.03500
C207        C  0.80510441  0.35199723  0.49482700    -0.10600
H208        H  0.82090669  0.40472285  0.45481833     0.09100
H209        H  0.78722038  0.40404570  0.53462651     0.06700
H210        H  0.80531847  0.33010073  0.49471325     0.06500
C211        C  0.57208627  0.13602119  0.54725471     0.03500
C212        C  0.54724839  0.13730563  0.56157476    -0.12600
C213        C  0.52189473  0.13939363  0.54842901     0.01000
C214        C  0.52160038  0.14108142  0.52073868    -0.11100
C215        C  0.54637209  0.13929133  0.50578400     0.03500
C216        C  0.57152523  0.13621668  0.51958722    -0.10600
H217        H  0.54764949  0.13669253  0.58299600     0.09100
H218        H  0.50184613  0.14402119  0.51127432     0.06700
H219        H  0.59096624  0.13373553  0.50920188     0.06500
Zr220      Zr  0.83602821  0.14782326  0.76622358     2.17500
O221        O  0.88387436  0.13328523  0.77231177    -0.50900
O222        O  0.82755166  0.11478882  0.80097371    -0.74100
O223        O  0.86016044  0.17406161  0.79929660    -0.80900
O224        O  0.83289174  0.10170497  0.70532714    -0.82700
O225        O  0.83435774  0.21072177  0.81057118    -0.78300
O226        O  0.86045879  0.11568185  0.73892289    -0.89900
O227        O  0.78141233  0.11389494  0.80958683    -0.75900
O228        O  0.79842634  0.16593748  0.79107895    -0.85400
O229        O  0.79647458  0.12279279  0.75279846    -0.85100
O230        O  0.83529344  0.19499476  0.75490444    -0.71800
O231        O  0.83234343  0.15545283  0.71958580    -0.83900
Zr232      Zr  0.75240185  0.19580261  0.71850329     2.26400
Zr233      Zr  0.79633093  0.21262266  0.77895253     2.06300
Zr234      Zr  0.79217891  0.13078944  0.70624064     2.10000
Zr235      Zr  0.75867733  0.14182488  0.77687502     1.78800
O236        O  0.80851459  0.12261097  0.66131495    -0.92800
O237        O  0.74001756  0.15552897  0.81970585    -0.40600
O238        O  0.75347004  0.14888318  0.73020273    -0.77200
O239        O  0.75549530  0.18861596  0.76554766    -0.95900
O240        O  0.79168991  0.22079293  0.73242377    -0.89200
O241        O  0.79025869  0.17747075  0.69415487    -0.92000
C242        C  0.80639287  0.10663660  0.81410658     1.01700
C243        C  0.85535715  0.10092579  0.71876752     1.14700
C244        C  0.85563554  0.19533962  0.81308864     1.05400
O245        O  0.77619617  0.22018666  0.82257396    -0.94200
O246        O  0.75976476  0.24611805  0.77641384    -0.89900
O247        O  0.73292416  0.23443438  0.74138501    -0.83100
C248        C  0.73879804  0.24932697  0.76129149     1.12100
O249        O  0.87979804  0.20646361  0.70802627    -0.96200
Zr250      Zr  0.82954486  0.20237151  0.70843805     1.88900
O251        O  0.76072755  0.22715318  0.68218674    -0.72800
O252        O  0.81865745  0.25666685  0.77802593    -0.52100
O253        O  0.84252842  0.24886521  0.71808932    -0.96700
O254        O  0.85410455  0.18914466  0.66828040    -0.54000
O255        O  0.80693809  0.22858358  0.67429264    -0.73300
C256        C  0.78192761  0.23533791  0.66908417     0.99000
O257        O  0.70296865  0.20192678  0.71080426    -0.62100
O258        O  0.77208087  0.08602293  0.71135394    -0.56900
O259        O  0.72813720  0.16927421  0.68573047    -0.93600
O260        O  0.75304292  0.13159863  0.67576887    -0.92100
O261        O  0.73816619  0.09776106  0.76848250    -0.92400
O262        O  0.70834102  0.14314646  0.77939798    -0.91200
C263        C  0.73215500  0.14739884  0.67263846     1.17900
H264        H  0.79865361  0.10374807  0.75640280     0.33800
H265        H  0.73938830  0.19580874  0.77450662     0.44700
H266        H  0.78753457  0.17904914  0.67530698     0.38200
H267        H  0.85206520  0.20399136  0.76022439     0.34700
H268        H  0.73347531  0.13858380  0.82800913     0.26500
H269        H  0.81573040  0.26409322  0.79601586     0.32400
H270        H  0.82570224  0.25976284  0.71475329     0.38300
H271        H  0.74931086  0.08480189  0.77885563     0.32800
H272        H  0.75189669  0.08925573  0.71271872     0.31600
H273        H  0.80333088  0.10367216  0.65752618     0.33300
H274        H  0.85482431  0.20569495  0.65732581     0.32300
H275        H  0.70288563  0.15724351  0.76656236     0.36300
H276        H  0.69406907  0.20179016  0.72847539     0.29000
H277        H  0.88606226  0.12992560  0.79148712     0.33300
H278        H  0.88586525  0.19999199  0.72557288     0.36100
H279        H  0.77468600  0.07731045  0.69389002     0.28700
H280        H  0.70070088  0.22060996  0.70417201     0.41600
H281        H  0.78064200  0.20363417  0.83263881     0.31600
H282        H  0.75640382  0.16069051  0.83018208     0.39300
H283        H  0.84109916  0.17707755  0.65894152     0.31100
H284        H  0.83873846  0.25277676  0.77702933     0.31200
H285        H  0.89542192  0.14930889  0.76847303     0.31400
C286        C  0.34112206  0.48472076  0.51869776     0.03500
C287        C  0.33479155  0.49840673  0.49521065    -0.12600
C288        C  0.32936818  0.48416365  0.47185510     0.01000
C289        C  0.32882506  0.45586704  0.47240818    -0.11100
C290        C  0.33651807  0.44139161  0.49522942     0.03500
C291        C  0.34337607  0.45638355  0.51814589    -0.10600
H292        H  0.33390172  0.52026369  0.49511435     0.09100
H293        H  0.32244627  0.44550524  0.45466473     0.06700
H294        H  0.35024669  0.44638405  0.53591207     0.06500
Zr295      Zr  0.34277667  0.64709663  0.73114418     2.17500
O296        O  0.39239206  0.64290339  0.73866803    -0.50900
O297        O  0.33971826  0.61839535  0.69200670    -0.74100
O298        O  0.35332571  0.60387117  0.75104323    -0.80900
O299        O  0.35223171  0.71104024  0.69135610    -0.82700
O300        O  0.32226862  0.59353653  0.78349572    -0.78300
O301        O  0.37182653  0.66994623  0.69924550    -0.89900
O302        O  0.29477971  0.61766510  0.68055519    -0.75900
O303        O  0.30009473  0.62444064  0.73859578    -0.85400
O304        O  0.31050396  0.66911296  0.70310588    -0.85100
O305        O  0.33284819  0.65239475  0.77742451    -0.71800
O306        O  0.34258933  0.69357914  0.74468735    -0.83900
Zr307      Zr  0.25545176  0.69822712  0.77002044     2.26400
Zr308      Zr  0.28904532  0.63070797  0.78451853     2.06300
Zr309      Zr  0.30926533  0.71522186  0.71709379     2.10000
Zr310      Zr  0.26802444  0.64633359  0.71050883     1.78800
O311        O  0.33189042  0.75791363  0.72692362    -0.92800
O312        O  0.24483106  0.60281660  0.71361826    -0.40600
O313        O  0.26609056  0.69258159  0.72397979    -0.77200
O314        O  0.25545024  0.65165964  0.75626575    -0.95900
O315        O  0.28773016  0.67690710  0.79839243    -0.89200
O316        O  0.29808746  0.72133050  0.76296109    -0.92000
C317        C  0.32008900  0.61062625  0.67677622     1.01700
C318        C  0.37104761  0.69296592  0.68770559     1.14700
C319        C  0.34378502  0.58838329  0.76928221     1.05400
O320        O  0.26402701  0.58809382  0.78316239    -0.94200
O321        O  0.24680355  0.63348154  0.81120464    -0.89900
O322        O  0.22527838  0.67219745  0.79877358    -0.83100
C323        C  0.22651121  0.65029131  0.81217944     1.12100
O324        O  0.38049023  0.69731091  0.79739260    -0.96200
Zr325      Zr  0.33069284  0.69885848  0.79050528     1.88900
O326        O  0.26099155  0.72845561  0.80772594    -0.72800
O327        O  0.30423100  0.62629765  0.83010522    -0.52100
O328        O  0.34236117  0.67888560  0.83298004    -0.96700
O329        O  0.35294190  0.74299105  0.78992564    -0.54000
O330        O  0.30526014  0.72598214  0.82216881    -0.73300
C331        C  0.28033356  0.73464876  0.82392453     0.99000
O332        O  0.20796350  0.71514913  0.77120660    -0.62100
O333        O  0.30036047  0.72938035  0.67176453    -0.56900
O334        O  0.23716806  0.73311875  0.74164601    -0.93600
O335        O  0.26995138  0.74565724  0.71162917    -0.92100
O336        O  0.25603397  0.66436479  0.66724723    -0.92400
O337        O  0.21878575  0.64964325  0.70115546    -0.91200
C338        C  0.24583755  0.74757542  0.72233053     1.17900
H339        H  0.31607037  0.66795391  0.68476632     0.33800
H340        H  0.23747710  0.64355832  0.75882735     0.44700
H341        H  0.29637603  0.74027880  0.76725051     0.38200
H342        H  0.34702303  0.64354226  0.78766483     0.34700
H343        H  0.24572674  0.59524698  0.69550502     0.26500
H344        H  0.29835079  0.60794172  0.83540956     0.32400
H345        H  0.34710203  0.69442000  0.84441118     0.38300
H346        H  0.27368623  0.66493498  0.65723837     0.32800
H347        H  0.31625366  0.74089033  0.66668424     0.31600
H348        H  0.33219083  0.76768033  0.70985389     0.33300
H349        H  0.33768135  0.75633750  0.79071250     0.32300
H350        H  0.21053833  0.65735647  0.71746730     0.36300
H351        H  0.19613327  0.69979945  0.76589220     0.29000
H352        H  0.39789419  0.62570532  0.73012241     0.33300
H353        H  0.38759434  0.68553452  0.78304721     0.36100
H354        H  0.30257609  0.71278611  0.66103068     0.28700
H355        H  0.20351755  0.71842821  0.79008257     0.41600
H356        H  0.24604129  0.59254237  0.77493817     0.31600
H357        H  0.25752571  0.59132066  0.72401237     0.39300
H358        H  0.36058100  0.74475463  0.77180793     0.31100
H359        H  0.32465660  0.62529393  0.82903034     0.31200
H360        H  0.39425734  0.63952593  0.75787243     0.31400
C361        C  0.60175911  0.45266123  0.78706241     0.03500
C362        C  0.57326949  0.45018669  0.79167243    -0.12600
C363        C  0.56067692  0.42447216  0.79181457     0.01000
C364        C  0.57740066  0.40155109  0.78740805    -0.11100
C365        C  0.60597187  0.40409447  0.78394101     0.03500
C366        C  0.61799992  0.42963662  0.78340590    -0.10600
H367        H  0.56130681  0.46827042  0.79554113     0.09100
H368        H  0.56855589  0.38152999  0.78662562     0.06700
H369        H  0.64014140  0.43159579  0.78035411     0.06500
C370        C  0.57988789  0.71008379  0.55115027     0.03500
C371        C  0.57587605  0.70568107  0.52389445    -0.12600
C372        C  0.54931626  0.69922097  0.51385740     0.01000
C373        C  0.52701113  0.69779759  0.53195397    -0.11100
C374        C  0.53062672  0.70364523  0.55882120     0.03500
C375        C  0.55705620  0.70940996  0.56827555    -0.10600
H376        H  0.59358987  0.70740287  0.51086287     0.09100
H377        H  0.50659164  0.69190088  0.52555405     0.06700
H378        H  0.55991124  0.71315744  0.58920983     0.06500
C379        C  0.80817640  0.48425347  0.47392161     0.03500
C380        C  0.80689096  0.45580063  0.47256967    -0.12600
C381        C  0.80572537  0.43983711  0.49594029     0.01000
C382        C  0.80556217  0.45359617  0.52055392    -0.11100
C383        C  0.80560860  0.48187213  0.52193364     0.03500
C384        C  0.80724685  0.49698599  0.49862877    -0.10600
H385        H  0.80649535  0.44653982  0.45323055     0.09100
H386        H  0.80590755  0.44273546  0.53904801     0.06700
H387        H  0.80766085  0.51884529  0.49972590     0.06500
Zr388      Zr  0.75891850  0.65188609  0.72087254     2.17500
O389        O  0.71252781  0.63627423  0.70977869    -0.50900
O390        O  0.77291166  0.61961281  0.68655296    -0.74100
O391        O  0.73742259  0.67854681  0.68610769    -0.80900
O392        O  0.75807919  0.60597152  0.78237942    -0.82700
O393        O  0.76164660  0.71703198  0.67825516    -0.78300
O394        O  0.73407944  0.61755174  0.74548110    -0.89900
O395        O  0.81965069  0.61505707  0.68733202    -0.75900
O396        O  0.79807671  0.67168406  0.69999706    -0.85400
O397        O  0.79774313  0.62849385  0.73862043    -0.85100
O398        O  0.75666191  0.69899371  0.73278230    -0.71800
O399        O  0.75721219  0.65932264  0.76785449    -0.83900
Zr400      Zr  0.83476212  0.70309096  0.77666995     2.26400
Zr401      Zr  0.79701335  0.71845481  0.71257818     2.06300
Zr402      Zr  0.79704361  0.63671951  0.78534366     2.10000
Zr403      Zr  0.83689816  0.64869854  0.71803396     1.78800
O404        O  0.77746341  0.62868390  0.82910656    -0.92800
O405        O  0.85367946  0.66330166  0.67481434    -0.40600
O406        O  0.83720463  0.65611764  0.76501930    -0.77200
O407        O  0.83683987  0.69546988  0.72967829    -0.95900
O408        O  0.79590620  0.72648605  0.75930054    -0.89200
O409        O  0.79564837  0.68339257  0.79774864    -0.92000
C410        C  0.79567898  0.60890100  0.67846147     1.01700
C411        C  0.73762231  0.60348085  0.76647528     1.14700
C412        C  0.74156464  0.70074998  0.67361669     1.05400
O413        O  0.81993416  0.72752783  0.67053689    -0.94200
O414        O  0.83402397  0.75136278  0.71760390    -0.89900
O415        O  0.85686394  0.74107276  0.75547116    -0.83100
C416        C  0.85338980  0.75515797  0.73451729     1.12100
O417        O  0.70698378  0.70858429  0.77249658    -0.96200
Zr418      Zr  0.75669056  0.70613774  0.77964366     1.88900
O419        O  0.82074608  0.73342145  0.81227073    -0.72800
O420        O  0.77377744  0.76209656  0.71425328    -0.52100
O421        O  0.73747603  0.75123820  0.77389745    -0.96700
O422        O  0.73143404  0.68743920  0.81715493    -0.54000
O423        O  0.77393679  0.73499298  0.81460231    -0.73300
C424        C  0.79802898  0.74205060  0.82249700     0.99000
O425        O  0.88145563  0.71829786  0.78716632    -0.62100
O426        O  0.81913462  0.59255109  0.78289568    -0.56900
O427        O  0.85804012  0.67619002  0.80975624    -0.93600
O428        O  0.83359489  0.63811213  0.81846827    -0.92100
O429        O  0.86301845  0.60784122  0.72774202    -0.92400
O430        O  0.88690691  0.65445868  0.71934453    -0.91200
C431        C  0.85392536  0.65424438  0.82251324     1.17900
H432        H  0.79673294  0.60934921  0.73509876     0.33800
H433        H  0.85359667  0.70290713  0.72221437     0.44700
H434        H  0.79646165  0.68512629  0.81675935     0.38200
H435        H  0.74004772  0.70741348  0.72618472     0.34700
H436        H  0.86625382  0.64867096  0.66888180     0.26500
H437        H  0.77648850  0.76978699  0.69636254     0.32400
H438        H  0.75342081  0.76261661  0.76869626     0.38300
H439        H  0.84901284  0.59330446  0.72851182     0.32800
H440        H  0.83896003  0.59650391  0.77976262     0.31600
H441        H  0.78467324  0.61075393  0.83434698     0.33300
H442        H  0.72365949  0.70337308  0.82642789     0.32300
H443        H  0.89025108  0.66495384  0.73568998     0.36300
H444        H  0.88143846  0.72222941  0.80637226     0.29000
H445        H  0.71243867  0.63359633  0.69037237     0.33300
H446        H  0.70195150  0.69030823  0.76625883     0.36100
H447        H  0.81837408  0.58552038  0.80120288     0.28700
H448        H  0.89372986  0.70242949  0.78490937     0.41600
H449        H  0.81565500  0.71165599  0.65939087     0.31600
H450        H  0.83751956  0.66185607  0.66294422     0.39300
H451        H  0.74588454  0.68045486  0.82914471     0.31100
H452        H  0.75380160  0.75777290  0.71519775     0.31200
H453        H  0.70006678  0.65180401  0.71307830     0.31400
C454        C  0.52113522  0.13952415  0.43416016     0.03500
C455        C  0.52181731  0.13577287  0.46160028    -0.12600
C456        C  0.54611450  0.14113239  0.47611896     0.01000
C457        C  0.57000217  0.14924775  0.46197010    -0.11100
C458        C  0.56979303  0.15150522  0.43438308     0.03500
C459        C  0.54524141  0.14698331  0.42057134    -0.10600
H460        H  0.50302736  0.12919214  0.47128260     0.09100
H461        H  0.58885526  0.15462380  0.47205490     0.06700
H462        H  0.54473304  0.14986818  0.39933204     0.06500
Zr463      Zr  0.78031732  0.21440353  0.27391756     2.17500
O464        O  0.78101624  0.26356400  0.27699086    -0.50900
O465        O  0.74394373  0.20688569  0.30662312    -0.74100
O466        O  0.74159137  0.23420885  0.25038232    -0.80900
O467        O  0.84150161  0.21020515  0.32163049    -0.82700
O468        O  0.73280841  0.21038477  0.21328153    -0.78300
O469        O  0.80369717  0.23540753  0.31090370    -0.89900
O470        O  0.73643640  0.16158837  0.30647280    -0.75900
O471        O  0.75547811  0.17763085  0.25513423    -0.85400
O472        O  0.79446126  0.17552626  0.29808535    -0.85100
O473        O  0.79303105  0.21349743  0.22792772    -0.71800
O474        O  0.82936974  0.21104294  0.26779970    -0.83900
Zr475      Zr  0.83202085  0.13314434  0.22707191     2.26400
Zr476      Zr  0.76889515  0.17565556  0.20950020     2.06300
Zr477      Zr  0.84338457  0.17152200  0.29134636     2.10000
Zr478      Zr  0.77001857  0.13887940  0.27886339     1.78800
O479        O  0.89140874  0.18605233  0.29369855    -0.92800
O480        O  0.72583510  0.12037374  0.26467370    -0.40600
O481        O  0.81877095  0.13424518  0.27271191    -0.77200
O482        O  0.78264394  0.13571583  0.23309302    -0.95900
O483        O  0.81793640  0.17189406  0.20281918    -0.89200
O484        O  0.85710866  0.16975441  0.24576179    -0.92000
C485        C  0.73093980  0.18564749  0.31416706     1.01700
C486        C  0.82533998  0.23068717  0.32477715     1.14700
C487        C  0.72737682  0.22982657  0.22945186     1.05400
O488        O  0.72434282  0.15565834  0.19879586    -0.94200
O489        O  0.77365366  0.14049851  0.17562903    -0.89900
O490        O  0.80956719  0.11414638  0.18878898    -0.83100
C491        C  0.78975171  0.11992760  0.17309058     1.12100
O492        O  0.84254464  0.25783002  0.22181641    -0.96200
Zr493      Zr  0.84205438  0.20867872  0.22212271     1.88900
O494        O  0.87042261  0.14157655  0.19693870    -0.72800
O495        O  0.77181997  0.20135808  0.16856431    -0.52100
O496        O  0.83443500  0.22740715  0.17825229    -0.96700
O497        O  0.88472894  0.22948937  0.23731038    -0.54000
O498        O  0.87646461  0.18692947  0.19449615    -0.73300
C499        C  0.88279579  0.16263646  0.18815223     0.99000
O500        O  0.84226584  0.08531478  0.22037933    -0.62100
O501        O  0.84446406  0.15328298  0.33603248    -0.56900
O502        O  0.86178852  0.10668029  0.25537871    -0.93600
O503        O  0.86978258  0.12954764  0.29360587    -0.92100
O504        O  0.77802534  0.12008272  0.32261459    -0.92400
O505        O  0.76762403  0.08980030  0.27998709    -0.91200
C506        C  0.87276821  0.10902905  0.27827629     1.17900
H507        H  0.79017762  0.17739352  0.31665215     0.33800
H508        H  0.77366639  0.11995261  0.22581318     0.44700
H509        H  0.87686639  0.16696807  0.24423235     0.38200
H510        H  0.78712113  0.22994069  0.21939121     0.34700
H511        H  0.71502702  0.11785373  0.28118201     0.26500
H512        H  0.79017785  0.19671705  0.16104022     0.32400
H513        H  0.85320176  0.23039396  0.17087063     0.38300
H514        H  0.79837989  0.11817487  0.32376785     0.32800
H515        H  0.85888870  0.16382039  0.34525236     0.31600
H516        H  0.89919194  0.17595092  0.30882662     0.33300
H517        H  0.89615373  0.23167740  0.22114558     0.32300
H518        H  0.77601003  0.08393853  0.26301630     0.36300
H519        H  0.82417453  0.07597867  0.22069310     0.29000
H520        H  0.76414303  0.26858809  0.28702042     0.33300
H521        H  0.82825030  0.26311887  0.23494444     0.36100
H522        H  0.82682596  0.15909975  0.34427533     0.28700
H523        H  0.84913813  0.08354504  0.20196858     0.41600
H524        H  0.72534769  0.13702647  0.20580196     0.31600
H525        H  0.71652372  0.13551137  0.25555322     0.39300
H526        H  0.89422183  0.21525128  0.24755965     0.31100
H527        H  0.75847362  0.19247076  0.15661366     0.31200
H528        H  0.77790774  0.27035228  0.25883810     0.31400
C529        C  0.51357406  0.69116145  0.44669108     0.03500
C530        C  0.51817297  0.69718185  0.47343975    -0.12600
C531        C  0.54464352  0.69368278  0.48491124     0.01000
C532        C  0.56651620  0.68489676  0.46835204    -0.11100
C533        C  0.56234105  0.68031217  0.44124260     0.03500
C534        C  0.53575329  0.68291378  0.43070104    -0.10600
H535        H  0.50096086  0.70494277  0.48489999     0.09100
H536        H  0.58705082  0.68172916  0.47614164     0.06700
H537        H  0.53247938  0.67941247  0.40978539     0.06500
C538        C  0.60979202  0.44284867  0.19639689     0.03500
C539        C  0.62283825  0.41750238  0.19687690    -0.12600
C540        C  0.60759336  0.39373377  0.19218962     0.01000
C541        C  0.57925312  0.39591105  0.18619997    -0.11100
C542        C  0.56536827  0.42098156  0.18752379     0.03500
C543        C  0.58111077  0.44420097  0.19318358    -0.10600
H544        H  0.64482270  0.41633562  0.20079724     0.09100
H545        H  0.56818072  0.37776548  0.18091850     0.06700
H546        H  0.57147864  0.46379747  0.19519286     0.06500
Zr547      Zr  0.82284572  0.71291589  0.22144474     2.17500
O548        O  0.83323636  0.75906793  0.20772216    -0.50900
O549        O  0.86131315  0.70175120  0.19224292    -0.74100
O550        O  0.85562305  0.73591451  0.25026007    -0.80900
O551        O  0.76309100  0.71180286  0.17138404    -0.82700
O552        O  0.86175694  0.71213625  0.28820358    -0.78300
O553        O  0.79988005  0.73629522  0.18562653    -0.89900
O554        O  0.86676780  0.65621551  0.19193168    -0.75900
O555        O  0.84496148  0.67538225  0.24184236    -0.85400
O556        O  0.80836784  0.67437372  0.19686122    -0.85100
O557        O  0.80659880  0.71360102  0.26650118    -0.71800
O558        O  0.77327013  0.71183589  0.22445365    -0.83900
Zr559      Zr  0.76521633  0.63489878  0.26709263     2.26400
Zr560      Zr  0.82833816  0.67519670  0.28678613     2.06300
Zr561      Zr  0.75894364  0.67238535  0.20081249     2.10000
Zr562      Zr  0.82976070  0.63680648  0.21780279     1.78800
O563        O  0.71251565  0.68936433  0.19228022    -0.92800
O564        O  0.87111003  0.61572329  0.23585175    -0.40600
O565        O  0.78046403  0.63430243  0.22168074    -0.77200
O566        O  0.81470512  0.63558583  0.26289501    -0.95900
O567        O  0.77899853  0.67395734  0.29085988    -0.89200
O568        O  0.74270859  0.67181966  0.24577491    -0.92000
C569        C  0.87368745  0.68008434  0.18491153     1.01700
C570        C  0.77925459  0.73247807  0.17021786     1.14700
C571        C  0.86695639  0.73222537  0.27288910     1.05400
O572        O  0.87383677  0.65748483  0.29790047    -0.94200
O573        O  0.82292687  0.63837266  0.31890781    -0.89900
O574        O  0.78494976  0.61443584  0.30667331    -0.83100
C575        C  0.80568631  0.61877503  0.32192497     1.12100
O576        O  0.75947006  0.75994608  0.26582702    -0.96200
Zr577      Zr  0.75719053  0.71095116  0.26915274     1.88900
O578        O  0.72632680  0.64617538  0.29594878    -0.72800
O579        O  0.82010757  0.69667781  0.32942004    -0.52100
O580        O  0.76045246  0.73431665  0.31139424    -0.96700
O581        O  0.71532629  0.72988936  0.24990559    -0.54000
O582        O  0.72174530  0.69178369  0.29744193    -0.73300
C583        C  0.71459827  0.66787244  0.30430960     0.99000
O584        O  0.76004526  0.58693458  0.27700810    -0.62100
O585        O  0.76481659  0.65394068  0.15642348    -0.56900
O586        O  0.73175105  0.61199258  0.23970223    -0.93600
O587        O  0.72848823  0.63264219  0.19961506    -0.92100
O588        O  0.82558906  0.61646302  0.17407675    -0.92400
O589        O  0.82691817  0.58773347  0.21763764    -0.91200
C590        C  0.72218878  0.61387637  0.21623074     1.17900
H591        H  0.81381488  0.67598660  0.17852707     0.33800
H592        H  0.82271475  0.61961327  0.27069124     0.44700
H593        H  0.72284921  0.66965536  0.24638414     0.38200
H594        H  0.81177524  0.73005283  0.27542497     0.34700
H595        H  0.88262594  0.61113494  0.22021511     0.36900
H596        H  0.83701034  0.69284060  0.33973469     0.32400
H597        H  0.76292769  0.71978279  0.32460048     0.38300
H598        H  0.81995921  0.63129576  0.16215995     0.32800
H599        H  0.76077745  0.63442461  0.15805378     0.31600
H600        H  0.71079747  0.68916664  0.17278005     0.33300
H601        H  0.70514307  0.73783220  0.26507941     0.32300
H602        H  0.81102884  0.58356479  0.22938091     0.36300
H603        H  0.74015007  0.58405003  0.28085197     0.29000
H604        H  0.85361721  0.76006024  0.20582019     0.33300
H605        H  0.77698921  0.76352398  0.25621786     0.36100
H606        H  0.74905566  0.66133695  0.14630358     0.28700
H607        H  0.76371958  0.57721413  0.26022318     0.41600
H608        H  0.87723951  0.66395827  0.31612491     0.31600
H609        H  0.88116471  0.63063256  0.24458813     0.39300
H610        H  0.70405034  0.71418958  0.24452494     0.31100
H611        H  0.82092280  0.71630276  0.32580747     0.31200
H612        H  0.82864813  0.77068379  0.22307103     0.31400
Zr613      Zr  0.26205755  0.69939843  0.21795860     2.17500
O614        O  0.21295212  0.70277787  0.20736815    -0.50900
O615        O  0.27349142  0.73797415  0.18958310    -0.74100
O616        O  0.23796209  0.73348599  0.24380156    -0.80900
O617        O  0.26784603  0.64036040  0.16837666    -0.82700
O618        O  0.26144341  0.74050868  0.28207376    -0.78300
O619        O  0.24278514  0.67763076  0.17920182    -0.89900
O620        O  0.31980689  0.74293158  0.18803782    -0.75900
O621        O  0.29889751  0.72244166  0.23917568    -0.85400
O622        O  0.30281018  0.68599747  0.19482806    -0.85100
O623        O  0.26041120  0.68451674  0.26326106    -0.71800
O624        O  0.26431607  0.65125429  0.22294323    -0.83900
Zr625      Zr  0.34293588  0.64685765  0.26657290     2.26400
Zr626      Zr  0.29826389  0.70722992  0.28420001     2.06300
Zr627      Zr  0.30564386  0.63810166  0.20028260     2.10000
Zr628      Zr  0.33970769  0.70871771  0.21638099     1.78800
O629        O  0.28899803  0.59232849  0.19318170    -0.92800
O630        O  0.35594256  0.75079294  0.23587456    -0.40600
O631        O  0.34355747  0.66077247  0.22102755    -0.77200
O632        O  0.34010501  0.69497870  0.26152581    -0.95900
O633        O  0.30191091  0.65940354  0.28966874    -0.89200
O634        O  0.30622419  0.62319271  0.24544741    -0.92000
C635        C  0.29537315  0.75028252  0.18144939     1.01700
C636        C  0.24766888  0.65687234  0.16463761     1.14700
C637        C  0.24175780  0.74558358  0.26589047     1.05400
O638        O  0.31488871  0.75161749  0.29726345    -0.94200
O639        O  0.33479072  0.70458977  0.31727477    -0.89900
O640        O  0.36272810  0.66975925  0.30477298    -0.83100
C641        C  0.35639947  0.68969942  0.31998632     1.12100
O642        O  0.21526467  0.63220233  0.26280131    -0.96200
Zr643      Zr  0.26513584  0.63647322  0.26807965     1.88900
O644        O  0.33179163  0.61062748  0.29756678    -0.72800
O645        O  0.27194017  0.70060546  0.32485815    -0.52100
O646        O  0.23995362  0.64408162  0.30934152    -0.96700
O647        O  0.25042111  0.59250763  0.25169400    -0.54000
O648        O  0.28517821  0.60543680  0.29998255    -0.73300
C649        C  0.30987835  0.59974300  0.30736531     0.99000
O650        O  0.39192989  0.64261648  0.27743580    -0.62100
O651        O  0.32811443  0.64107683  0.15711018    -0.56900
O652        O  0.36788928  0.61437107  0.23934059    -0.93600
O653        O  0.34566149  0.60871825  0.20012841    -0.92100
O654        O  0.36441758  0.70486599  0.17443326    -0.92400
O655        O  0.38993162  0.70674096  0.21998702    -0.91200
C656        C  0.36527951  0.60375196  0.21636363     1.17900
H657        H  0.30187049  0.69079857  0.17634051     0.33800
H658        H  0.35582037  0.70384286  0.26936481     0.44700
H659        H  0.30918622  0.60392753  0.24643247     0.38200
H660        H  0.24308472  0.68987445  0.27130740     0.34700
H661        H  0.37106347  0.75700117  0.22410359     0.26500
H662        H  0.28223189  0.68653153  0.33463478     0.32400
H663        H  0.22912465  0.66083114  0.30665424     0.38300
H664        H  0.37046822  0.72348123  0.17026454     0.32800
H665        H  0.31602971  0.65284193  0.14634664     0.31600
H666        H  0.29835822  0.58632001  0.17672483     0.33300
H667        H  0.26681502  0.58063323  0.25324048     0.32300
H668        H  0.39357955  0.69048600  0.23081575     0.36300
H669        H  0.39518962  0.62324632  0.28114626     0.29000
H670        H  0.20916601  0.72209972  0.20394998     0.33300
H671        H  0.21101975  0.64291941  0.24680472     0.36100
H672        H  0.34486977  0.65206721  0.16025877     0.28700
H673        H  0.40225828  0.64641752  0.26088255     0.41600
H674        H  0.33314575  0.75335662  0.28845441     0.31600
H675        H  0.34077207  0.76392200  0.23303741     0.39300
H676        H  0.24809995  0.59508423  0.23242166     0.31100
H677        H  0.27494857  0.71736079  0.33513112     0.31200
H678        H  0.20300077  0.69863016  0.22403675     0.31400
Zr679      Zr  0.33850005  0.20231573  0.26450517     2.17500
O680        O  0.38894317  0.20387932  0.26477657    -0.50900
O681        O  0.33307593  0.23433065  0.30082014    -0.74100
O682        O  0.35619075  0.24181169  0.24178924    -0.80900
O683        O  0.33949065  0.13918445  0.30767071    -0.82700
O684        O  0.32692374  0.25392006  0.20872558    -0.78300
O685        O  0.36382623  0.17714152  0.29751145    -0.89900
O686        O  0.28705350  0.23806934  0.30958079    -0.75900
O687        O  0.29864865  0.22766664  0.25255476    -0.85400
O688        O  0.30178215  0.18491972  0.29096852    -0.85100
O689        O  0.33280437  0.19455254  0.21793130    -0.71800
O690        O  0.33568902  0.15524698  0.25348816    -0.83900
Zr691      Zr  0.25137605  0.15548149  0.22200387     2.26400
Zr692      Zr  0.29176221  0.21914669  0.20646971     2.06300
Zr693      Zr  0.29841060  0.13815507  0.27976727     2.10000
Zr694      Zr  0.26190821  0.21005859  0.27863320     1.78800
O695        O  0.31937402  0.09346750  0.27746312    -0.92800
O696        O  0.24416215  0.25551351  0.27126899    -0.40600
O697        O  0.25769223  0.16308578  0.26837680    -0.77200
O698        O  0.25376880  0.20266954  0.23253406    -0.95900
O699        O  0.28798219  0.17238518  0.19515827    -0.89200
O700        O  0.29129891  0.12983404  0.23361556    -0.92000
C701        C  0.31247914  0.24375354  0.31410872     1.01700
C702        C  0.36027852  0.15511034  0.31040017     1.14700
C703        C  0.34880204  0.25705941  0.22259405     1.05400
O704        O  0.26728961  0.26213927  0.20540535    -0.94200
O705        O  0.25395981  0.21666010  0.17513764    -0.89900
O706        O  0.22788206  0.18061048  0.18748862    -0.83100
C707        C  0.23279585  0.20123933  0.17287009     1.12100
O708        O  0.37836398  0.14514789  0.20535635    -0.96200
Zr709      Zr  0.32803248  0.14755663  0.20728422     1.88900
O710        O  0.25685909  0.12301993  0.18640180    -0.72800
O711        O  0.31249736  0.22425992  0.16271856    -0.52100
O712        O  0.34572774  0.16194433  0.16431859    -0.96700
O713        O  0.34788870  0.10259059  0.21243112    -0.54000
O714        O  0.30245123  0.12012149  0.17584354    -0.73300
C715        C  0.27694439  0.11391011  0.17230714     0.99000
O716        O  0.20172675  0.14675450  0.22186456    -0.62100
O717        O  0.28431873  0.13299296  0.32581418    -0.56900
O718        O  0.22950483  0.12051098  0.24814892    -0.93600
O719        O  0.25889985  0.10758461  0.28081019    -0.92100
O720        O  0.24333589  0.19735013  0.32166570    -0.92400
O721        O  0.21160511  0.21103831  0.28164410    -0.91200
C722        C  0.23618378  0.10564787  0.26785075     1.17900
H723        H  0.30555555  0.18684245  0.30962133     0.33800
H724        H  0.23681320  0.21171161  0.22769912     0.44700
H725        H  0.28840473  0.11083105  0.23033417     0.38200
H726        H  0.34856711  0.20166387  0.20842265     0.34700
H727        H  0.26082491  0.26685787  0.26879627     0.26500
H728        H  0.33270684  0.22506959  0.16570744     0.32400
H729        H  0.35738142  0.17795119  0.16783567     0.38300
H730        H  0.23772903  0.17825062  0.31963084     0.32800
H731        H  0.26389975  0.13457508  0.32578925     0.31600
H732        H  0.31233072  0.08396391  0.29334012     0.33300
H733        H  0.34932261  0.09532583  0.19422236     0.32300
H734        H  0.20552764  0.19525360  0.27115475     0.36300
H735        H  0.19289713  0.16442961  0.22543034     0.29000
H736        H  0.39397285  0.22226638  0.27073010     0.33300
H737        H  0.38467207  0.15974346  0.21726211     0.36100
H738        H  0.28797010  0.11378881  0.32998106     0.28700
H739        H  0.19691151  0.14231829  0.20335703     0.41600
H740        H  0.27627917  0.27239298  0.19092807     0.31600
H741        H  0.23554049  0.25490081  0.25356919     0.39300
H742        H  0.33322180  0.09165315  0.22092522     0.31100
H743        H  0.30961609  0.20654629  0.15410337     0.31200
H744        H  0.39463064  0.20302925  0.24597262     0.31400
C745        C  0.66011370  0.56694350  0.21446082    -0.05100
C746        C  0.67183911  0.54373802  0.20255615     0.09100
C747        C  0.69916555  0.54487771  0.19254876    -0.02400
C748        C  0.71497615  0.56868116  0.19530490    -0.00700
C749        C  0.70359688  0.59156906  0.20806470    -0.04300
C750        C  0.67602773  0.59067749  0.21745294     0.02700
C751        C  0.65569070  0.51784654  0.20114769     0.09500
C752        C  0.71135771  0.52115689  0.18029916     0.35400
C753        C  0.66444423  0.61386485  0.23114652     0.38900
C754        C  0.64258819  0.51026944  0.17742828    -0.04700
C755        C  0.62728409  0.48605224  0.17610537     0.02500
C756        C  0.62595421  0.46850003  0.19817343    -0.04300
C757        C  0.63887780  0.47618732  0.22199283    -0.00500
C758        C  0.65341192  0.50091039  0.22355736    -0.03100
C759        C  0.64480192  0.52753184  0.15436893     0.36200
C760        C  0.63621393  0.45918651  0.24518930     0.39800
C761        C  0.61241966  0.47946656  0.15210224     0.38900
C762        C  0.66572666  0.50918014  0.24834630     0.35900
C763        C  0.63185772  0.56608672  0.22421852     0.36500
C764        C  0.74359551  0.56909800  0.18647354     0.39800
N765        N  0.60014597  0.47440611  0.13315487    -0.38300
N766        N  0.64674673  0.54124083  0.13593754    -0.39900
N767        N  0.63395555  0.44562460  0.26369636    -0.37600
N768        N  0.67534312  0.51597178  0.26816756    -0.40000
N769        N  0.72105769  0.50220697  0.17053620    -0.39800
N770        N  0.76647732  0.56942465  0.17959923    -0.37400
N771        N  0.65527992  0.63234006  0.24218054    -0.38500
N772        N  0.60931277  0.56526144  0.23201461    -0.40100
C773        C  0.45245752  0.72277323  0.41098358    -0.05100
C774        C  0.43733808  0.69958279  0.40370124     0.09100
C775        C  0.44495811  0.67420646  0.41407898    -0.02400
C776        C  0.46936248  0.67154972  0.42906543    -0.00700
C777        C  0.48569319  0.69446329  0.43465628    -0.04300
C778        C  0.47641135  0.72024814  0.42670131     0.02700
C779        C  0.41576703  0.70104255  0.38251132     0.09500
C780        C  0.42789874  0.65077070  0.40875759     0.35400
C781        C  0.49207561  0.74403954  0.43395846     0.38900
C782        C  0.42419720  0.70185759  0.35574440    -0.04700
C783        C  0.40444169  0.70013972  0.33541084     0.02500
C784        C  0.37617160  0.69614657  0.34159095    -0.04300
C785        C  0.36756863  0.69649624  0.36838515    -0.00500
C786        C  0.38731799  0.69925188  0.38876166    -0.03100
C787        C  0.45343685  0.70310581  0.34914208     0.36200
C788        C  0.33870203  0.69229909  0.37512988     0.39800
C789        C  0.41319266  0.70290035  0.30804239     0.38900
C790        C  0.37856789  0.69924849  0.41622572     0.35900
C791        C  0.44368910  0.74909455  0.40170789     0.36500
C792        C  0.47805836  0.64512553  0.43815332     0.39800
N793        N  0.42010172  0.70540762  0.28623344    -0.38300
N794        N  0.47679802  0.70386084  0.34403291    -0.39900
N795        N  0.31574128  0.68868786  0.38067845    -0.37600
N796        N  0.37166668  0.69920475  0.43817532    -0.40000
N797        N  0.41385438  0.63234758  0.40467464    -0.39800
N798        N  0.48495213  0.62398768  0.44531829    -0.37400
N799        N  0.50455864  0.76297236  0.43996736    -0.38500
N800        N  0.43664998  0.77010171  0.39430814    -0.40100
C801        C  0.62798912  0.69207909  0.40099113    -0.05100
C802        C  0.62963629  0.66812811  0.38594402     0.09100
C803        C  0.61030098  0.64727694  0.39036982    -0.02400
C804        C  0.58891034  0.65070428  0.40924457    -0.00700
C805        C  0.58631887  0.67532537  0.42322450    -0.04300
C806        C  0.60596876  0.69600823  0.41897193     0.02700
C807        C  0.65057159  0.66589572  0.36411106     0.09500
C808        C  0.61223672  0.62252724  0.37512645     0.35400
C809        C  0.60262666  0.72195752  0.43196367     0.38900
C810        C  0.67522569  0.65110917  0.36766349    -0.04700
C811        C  0.69546631  0.65036398  0.34742348     0.02500
C812        C  0.69166043  0.66541021  0.32391223    -0.04300
C813        C  0.66655298  0.67961847  0.32016114    -0.00500
C814        C  0.64596551  0.67949679  0.34003271    -0.03100
C815        C  0.68012719  0.63741800  0.39253457     0.36200
C816        C  0.66153356  0.69404032  0.29569609     0.39800
C817        C  0.72058391  0.63480143  0.35129617     0.38900
C818        C  0.61994939  0.69350803  0.33584537     0.35900
C819        C  0.64898642  0.71273893  0.39782209     0.36500
C820        C  0.56957187  0.62893676  0.41427358     0.39800
N821        N  0.74045795  0.62214557  0.35437419    -0.38300
N822        N  0.68409580  0.62659631  0.41242799    -0.39900
N823        N  0.65713470  0.70561637  0.27630128    -0.37600
N824        N  0.59912434  0.70456379  0.33261196    -0.40000
N825        N  0.61395932  0.60282901  0.36289646    -0.39800
N826        N  0.55420499  0.61151428  0.41833910    -0.37400
N827        N  0.59968153  0.74269406  0.44217286    -0.38500
N828        N  0.66591309  0.72906970  0.39544961    -0.40100
C829        C  0.66035841  0.33630978  0.18493830    -0.05100
C830        C  0.64983188  0.31691384  0.20283035     0.09100
C831        C  0.62410755  0.32178614  0.21543188    -0.02400
C832        C  0.61014122  0.34660243  0.21176264    -0.00700
C833        C  0.62111733  0.36646500  0.19443086    -0.04300
C834        C  0.64568244  0.36052493  0.18016360     0.02700
C835        C  0.66703615  0.29263086  0.21021433     0.09500
C836        C  0.61249973  0.30156956  0.23303267     0.35400
C837        C  0.65569035  0.37913282  0.16016890     0.38900
C838        C  0.67849729  0.29090668  0.23571041    -0.04700
C839        C  0.69546803  0.26886924  0.24276116     0.02500
C840        C  0.70403902  0.24948549  0.22344004    -0.04300
C841        C  0.69134486  0.25073115  0.19804537    -0.00500
C842        C  0.67258093  0.27183372  0.19182062    -0.03100
C843        C  0.67357788  0.31251949  0.25462248     0.36200
C844        C  0.69744484  0.23074664  0.17784345     0.39800
C845        C  0.70310796  0.26622499  0.27037107     0.38900
C846        C  0.65932759  0.27252457  0.16614359     0.35900
C847        C  0.68696432  0.33184740  0.17223292     0.36500
C848        C  0.58506377  0.35198187  0.22682456     0.39800
N849        N  0.70875060  0.26431139  0.29250422    -0.38300
N850        N  0.66963659  0.32982815  0.26957166    -0.39900
N851        N  0.70207583  0.21491998  0.16154446    -0.37600
N852        N  0.64884153  0.27315967  0.14563545    -0.40000
N853        N  0.60338860  0.28554854  0.24725489    -0.39800
N854        N  0.56500410  0.35619601  0.23876187    -0.37400
N855        N  0.66355915  0.39393241  0.14411915    -0.38500
N856        N  0.70822524  0.32817363  0.16220014    -0.40100
C857        C  0.62186309  0.19303078  0.39513044    -0.05100
C858        C  0.64247525  0.17360749  0.38973040     0.09100
C859        C  0.63994661  0.14726418  0.40009813    -0.02400
C860        C  0.61651284  0.14023520  0.41534279    -0.00700
C861        C  0.59534762  0.15942283  0.41991484    -0.04300
C862        C  0.59829047  0.18594612  0.41009551     0.02700
C863        C  0.66475724  0.17982159  0.37012295     0.09500
C864        C  0.66087480  0.12710767  0.39403633     0.35400
C865        C  0.57684609  0.20584806  0.41501356     0.38900
C866        C  0.69003056  0.19149039  0.37805017    -0.04700
C867        C  0.71126055  0.19591966  0.35921263     0.02500
C868        C  0.70728280  0.18817811  0.33262665    -0.04300
C869        C  0.68126673  0.17841324  0.32450835    -0.00500
C870        C  0.66011803  0.17415906  0.34319931    -0.03100
C871        C  0.69432987  0.19827556  0.40560948     0.36200
C872        C  0.67631400  0.17272511  0.29677597     0.39800
C873        C  0.73730763  0.20775228  0.36725878     0.38900
C874        C  0.63364585  0.16342317  0.33485515     0.35900
C875        C  0.62450063  0.21999691  0.38426284     0.36500
C876        C  0.61365492  0.11297622  0.42546632     0.39800
N877        N  0.75794694  0.21751097  0.37368021    -0.38300
N878        N  0.69775414  0.20367985  0.42761702    -0.39900
N879        N  0.67236323  0.16838230  0.27463265    -0.37600
N880        N  0.61248669  0.15487213  0.32833303    -0.40000
N881        N  0.67747680  0.11098634  0.38905329    -0.39800
N882        N  0.61138338  0.09122345  0.43352126    -0.37400
N883        N  0.55977963  0.22182186  0.41881280    -0.38500
N884        N  0.62679201  0.24142035  0.37541885    -0.40100
C885        C  0.46015831  0.11457691  0.39359568    -0.05100
C886        C  0.44681876  0.13922627  0.38773557     0.09100
C887        C  0.45624564  0.16337790  0.39939222    -0.02400
C888        C  0.47999696  0.16317029  0.41538594    -0.00700
C889        C  0.49441315  0.13880370  0.41986519    -0.04300
C890        C  0.48380160  0.11433182  0.40988860     0.02700
C891        C  0.42413632  0.14031414  0.36777024     0.09500
C892        C  0.44174724  0.18853118  0.39445699     0.35400
C893        C  0.49718242  0.08900455  0.41641585     0.38900
C894        C  0.39617119  0.14133271  0.37587522    -0.04700
C895        C  0.37509811  0.14533557  0.35703505     0.02500
C896        C  0.38190823  0.14794357  0.32993154    -0.04300
C897        C  0.40988288  0.14588510  0.32179201    -0.00500
C898        C  0.43092214  0.14243342  0.34068616    -0.03100
C899        C  0.38925867  0.13927814  0.40373636     0.36200
C900        C  0.41707803  0.14722592  0.29392578     0.39800
C901        C  0.34662510  0.14844596  0.36575077     0.38900
C902        C  0.45974088  0.14217787  0.33243667     0.35900
C903        C  0.44975388  0.08961902  0.38247958     0.36500
C904        C  0.48964418  0.18804876  0.42733434     0.39800
N905        N  0.32394556  0.15111984  0.37276007    -0.38300
N906        N  0.38379694  0.13772796  0.42599199    -0.39900
N907        N  0.42291369  0.14815931  0.27171794    -0.37600
N908        N  0.48277234  0.14216086  0.32603281    -0.40000
N909        N  0.43003523  0.20852617  0.39057360    -0.39800
N910        N  0.49725207  0.20782594  0.43705604    -0.37400
N911        N  0.50764261  0.06873259  0.42184889    -0.38500
N912        N  0.44140105  0.06972798  0.37357064    -0.40100
C913        C  0.82554672  0.52607133  0.58046571    -0.05100
C914        C  0.79989186  0.52913144  0.59369369     0.09100
C915        C  0.77677405  0.51427266  0.58490095    -0.02400
C916        C  0.77880667  0.49799485  0.56196430    -0.00700
C917        C  0.80413360  0.49611369  0.54794353    -0.04300
C918        C  0.82773282  0.50929664  0.55793696     0.02700
C919        C  0.79697549  0.54906558  0.61600807     0.09500
C920        C  0.75083957  0.51602645  0.59935643     0.35400
C921        C  0.85433695  0.50524137  0.54510703     0.38900
C922        C  0.78782521  0.57564095  0.61081140    -0.04700
C923        C  0.78654903  0.59500511  0.63135942     0.02500
C924        C  0.79447278  0.58795833  0.65731371    -0.04300
C925        C  0.80272436  0.56111775  0.66267782    -0.00500
C926        C  0.80398173  0.54176346  0.64210734    -0.03100
C927        C  0.78019149  0.58312598  0.58410783     0.36200
C928        C  0.80945383  0.55332002  0.68952294     0.39800
C929        C  0.77799208  0.62244820  0.62557897     0.38900
C930        C  0.81258542  0.51431945  0.64771739     0.35900
C931        C  0.84957435  0.54070777  0.58969469     0.36500
C932        C  0.75468871  0.48367971  0.55242093     0.39800
N933        N  0.77117614  0.64433767  0.62092259    -0.38300
N934        N  0.77410219  0.58894915  0.56276011    -0.39900
N935        N  0.81464866  0.54711272  0.71098759    -0.37600
N936        N  0.81942497  0.49239553  0.65217654    -0.40000
N937        N  0.73020663  0.51734548  0.61102134    -0.39800
N938        N  0.73548047  0.47218748  0.54480812    -0.37400
N939        N  0.87551253  0.50161964  0.53489154    -0.38500
N940        N  0.86877104  0.55242327  0.59699165    -0.40100
C941        C  0.81261226  0.58912261  0.39168479    -0.05100
C942        C  0.81368447  0.56110538  0.38628165     0.09100
C943        C  0.81437236  0.55236645  0.35972782    -0.02400
C944        C  0.81243061  0.57121841  0.33880695    -0.00700
C945        C  0.81006542  0.59921761  0.34414265    -0.04300
C946        C  0.81085743  0.60808904  0.37074020     0.02700
C947        C  0.81255597  0.54060132  0.40836934     0.09500
C948        C  0.81712893  0.52379388  0.35400749     0.35400
C949        C  0.80873881  0.63667430  0.37665792     0.38900
C950        C  0.78669319  0.53122930  0.41778522    -0.04700
C951        C  0.78533502  0.51162169  0.43810078     0.02500
C952        C  0.80978367  0.50152835  0.44964915    -0.04300
C953        C  0.83567907  0.51025181  0.43972033    -0.00500
C954        C  0.83705683  0.52943144  0.41895307    -0.03100
C955        C  0.76140880  0.54168206  0.40635440     0.36200
C956        C  0.86091222  0.49943046  0.45093639     0.39800
C957        C  0.75873418  0.50161307  0.44709902     0.38900
C958        C  0.86366083  0.53739344  0.40816382     0.35900
C959        C  0.81318172  0.59843759  0.41885156     0.36500
C960        C  0.81344466  0.56171260  0.31168607     0.39800
N961        N  0.73758147  0.49333876  0.45419222    -0.38300
N962        N  0.74125728  0.55002502  0.39716416    -0.39900
N963        N  0.88101367  0.49069113  0.45988118    -0.37600
N964        N  0.88489385  0.54352811  0.39936335    -0.40000
N965        N  0.81954231  0.50097377  0.34962542    -0.39800
N966        N  0.81436700  0.55400605  0.29008845    -0.37400
N967        N  0.80701377  0.65947872  0.38141390    -0.38500
N968        N  0.81377629  0.60601973  0.44049321    -0.40100
C969        C  0.65144051  0.69389752  0.57818726    -0.05100
C970        C  0.65624211  0.71657551  0.59449984     0.09100
C971        C  0.63786457  0.73874775  0.59346009    -0.02400
C972        C  0.61386293  0.73746904  0.57770236    -0.00700
C973        C  0.60800319  0.71398830  0.56277796    -0.04300
C974        C  0.62742424  0.69258032  0.56241551     0.02700
C975        C  0.67861669  0.71561327  0.61501784     0.09500
C976        C  0.64302721  0.76238804  0.60963873     0.35400
C977        C  0.62172639  0.66829444  0.54736179     0.38900
C978        C  0.70684575  0.71791288  0.60789490    -0.04700
C979        C  0.72773185  0.71390871  0.62704527     0.02500
C980        C  0.72042182  0.70824998  0.65358568    -0.04300
C981        C  0.69213861  0.70801751  0.66096815    -0.00500
C982        C  0.67139922  0.71107022  0.64174280    -0.03100
C983        C  0.71431714  0.72403144  0.58075762     0.36200
C984        C  0.68426202  0.70508556  0.68857249     0.39800
C985        C  0.75659780  0.71443823  0.61912067     0.38900
C986        C  0.64251176  0.70879615  0.64943687     0.35900
C987        C  0.67046027  0.67121038  0.57880151     0.36500
C988        C  0.59460768  0.75997699  0.57762118     0.39800
N989        N  0.77957970  0.71481235  0.61256656    -0.38300
N990        N  0.72023059  0.72895672  0.55908832    -0.39900
N991        N  0.67792944  0.70296503  0.71057630    -0.37600
N992        N  0.61950123  0.70700003  0.65564286    -0.40000
N993        N  0.64705672  0.78114743  0.62271133    -0.39800
N994        N  0.57914295  0.77784666  0.57769378    -0.37400
N995        N  0.61710940  0.64891930  0.53537604    -0.38500
N996        N  0.68571920  0.65318235  0.57928484    -0.40100
C997        C  0.63746543  0.51449389  0.75999892    -0.05100
C998        C  0.65289465  0.52257540  0.78224974     0.09100
C999        C  0.64832614  0.51007813  0.80693930    -0.02400
C1000       C  0.62954940  0.48849400  0.80903063    -0.00700
C1001       C  0.61557616  0.47921074  0.78639482    -0.04300
C1002       C  0.61878380  0.49280417  0.76208464     0.02700
C1003       C  0.67481793  0.54351686  0.77941764     0.09500
C1004       C  0.66370749  0.51883310  0.82993172     0.35400
C1005       C  0.60368492  0.48371717  0.73902870     0.38900
C1006       C  0.66758623  0.57105923  0.77878443    -0.04700
C1007       C  0.68819364  0.59073783  0.77487016     0.02500
C1008       C  0.71629102  0.58297561  0.77253546    -0.04300
C1009       C  0.72361361  0.55542107  0.77434316    -0.00500
C1010       C  0.70282212  0.53568765  0.77703741    -0.03100
C1011       C  0.63885582  0.57902813  0.78199889     0.36200
C1012       C  0.75242752  0.54726909  0.77267120     0.39800
C1013       C  0.68043053  0.61900808  0.77360292     0.38900
C1014       C  0.71005851  0.50724674  0.77640277     0.35900
C1015       C  0.64173532  0.52777967  0.73475664     0.36500
C1016       C  0.62516746  0.47523825  0.83426608     0.39800
N1017       N  0.67402275  0.64149969  0.77255000    -0.38300
N1018       N  0.61590645  0.58525169  0.78460110    -0.39900
N1019       N  0.77541305  0.54073574  0.77157466    -0.37600
N1020       N  0.71570833  0.48454113  0.77564792    -0.40000
N1021       N  0.67609751  0.52573961  0.84823692    -0.39800
N1022       N  0.62153003  0.46471979  0.85440646    -0.37400
N1023       N  0.59158384  0.47646435  0.72067082    -0.38500
N1024       N  0.64519918  0.53845494  0.71466555    -0.40100
C1025       C  0.41391019  0.68930205  0.62471735    -0.05100
C1026       C  0.43691294  0.70538356  0.63135192     0.09100
C1027       C  0.43747995  0.71887776  0.65593740    -0.02400
C1028       C  0.41573002  0.71520593  0.67436992    -0.00700
C1029       C  0.39311644  0.69844370  0.66801322    -0.04300
C1030       C  0.39219030  0.68564575  0.64307424     0.02700
C1031       C  0.46155054  0.70596297  0.61332453     0.09500
C1032       C  0.46058223  0.73633704  0.66222115     0.35400
C1033       C  0.36907315  0.66828090  0.63648770     0.38900
C1034       C  0.46299713  0.72454186  0.59225714    -0.04700
C1035       C  0.48526866  0.72342535  0.57411118     0.02500
C1036       C  0.50653746  0.70404576  0.57730306    -0.04300
C1037       C  0.50526360  0.68575987  0.59871536    -0.00500
C1038       C  0.48284410  0.68674619  0.61664046    -0.03100
C1039       C  0.44173655  0.74501833  0.58952732     0.36200
C1040       C  0.52666847  0.66546137  0.60195463     0.39800
C1041       C  0.48646021  0.74242039  0.55230331     0.38900
C1042       C  0.48155547  0.66792399  0.63857375     0.35900
C1043       C  0.41279584  0.67630334  0.59902857     0.36500
C1044       C  0.41724432  0.72756300  0.70032028     0.39800
N1045       N  0.48743373  0.75737895  0.53475475    -0.38300
N1046       N  0.42489652  0.76150986  0.58745092    -0.39900
N1047       N  0.54376843  0.64930492  0.60455539    -0.37600
N1048       N  0.48045474  0.65302686  0.65616040    -0.40000
N1049       N  0.47897521  0.75040527  0.66704034    -0.39800
N1050       N  0.41855593  0.73722708  0.72111874    -0.37400
N1051       N  0.35068258  0.65437580  0.63124309    -0.38500
N1052       N  0.41188136  0.66610786  0.57845414    -0.40100
C1053       C  0.34013129  0.50910178  0.40110433    -0.05100
C1054       C  0.31932457  0.52897655  0.39906598     0.09100
C1055       C  0.30105048  0.53342988  0.42050312    -0.02400
C1056       C  0.30385246  0.51844596  0.44407223    -0.00700
C1057       C  0.32510790  0.49892825  0.44643222    -0.04300
C1058       C  0.34303324  0.49410477  0.42464312     0.02700
C1059       C  0.31759651  0.54634930  0.37487934     0.09500
C1060       C  0.27956976  0.55377721  0.41835231     0.35400
C1061       C  0.36509349  0.47428627  0.42665739     0.38900
C1062       C  0.30148050  0.53840926  0.35306030    -0.04700
C1063       C  0.29909247  0.55549539  0.33074572     0.02500
C1064       C  0.31333836  0.58049607  0.32992003    -0.04300
C1065       C  0.32997210  0.58793947  0.35173459    -0.00500
C1066       C  0.33181972  0.57111636  0.37412484    -0.03100
C1067       C  0.28721293  0.51268069  0.35383000     0.36200
C1068       C  0.34455860  0.61344852  0.35182378     0.39800
C1069       C  0.28231030  0.54699833  0.30859349     0.38900
C1070       C  0.34792922  0.57960146  0.39679434     0.35900
C1071       C  0.35896392  0.50451746  0.37911220     0.36500
C1072       C  0.28465568  0.52295656  0.46579776     0.39800
N1073       N  0.26879086  0.53989218  0.29111198    -0.38300
N1074       N  0.27597453  0.49208270  0.35467329    -0.39900
N1075       N  0.35653189  0.63361868  0.35218310    -0.37600
N1076       N  0.36063171  0.58648884  0.41490893    -0.40000
N1077       N  0.26247274  0.57005439  0.41658738    -0.39800
N1078       N  0.26946628  0.52657375  0.48322601    -0.37400
N1079       N  0.38253415  0.45833674  0.42830361    -0.38500
N1080       N  0.37403608  0.50083184  0.36160781    -0.40100
C1081       C  0.32601061  0.51097065  0.58852466    -0.05100
C1082       C  0.34209067  0.53476585  0.58915416     0.09100
C1083       C  0.36038315  0.54026388  0.56794117    -0.02400
C1084       C  0.36166227  0.52277230  0.54583752    -0.00700
C1085       C  0.34370190  0.50025839  0.54409697    -0.04300
C1086       C  0.32627519  0.49416418  0.56593721     0.02700
C1087       C  0.33751614  0.55519016  0.61088958     0.09500
C1088       C  0.37706412  0.56457289  0.56832514     0.35400
C1089       C  0.30719296  0.47160769  0.56467148     0.38900
C1090       C  0.35783004  0.56015245  0.63015861    -0.04700
C1091       C  0.35310605  0.57937809  0.65049895     0.02500
C1092       C  0.32676829  0.59234997  0.65331945    -0.04300
C1093       C  0.30664199  0.58738860  0.63327583    -0.00500
C1094       C  0.31237451  0.56958255  0.61208383    -0.03100
C1095       C  0.38354484  0.54497095  0.62930471     0.36200
C1096       C  0.27979235  0.60058856  0.63361214     0.39800
C1097       C  0.37581264  0.58541951  0.66819932     0.38900
C1098       C  0.29217285  0.56599481  0.59118517     0.35900
C1099       C  0.30825238  0.50438263  0.61083900     0.36500
C1100       C  0.38136324  0.52813313  0.52474180     0.39800
N1101       N  0.39411081  0.59004415  0.68215702    -0.38300
N1102       N  0.40400868  0.53280745  0.62859648    -0.39900
N1103       N  0.25819192  0.61072759  0.63360941    -0.37600
N1104       N  0.27613076  0.56306903  0.57452774    -0.40000
N1105       N  0.39038910  0.58396067  0.56866619    -0.39800
N1106       N  0.39703377  0.53241101  0.50787419    -0.37400
N1107       N  0.29193185  0.45365454  0.56369275    -0.38500
N1108       N  0.29401920  0.49922847  0.62860357    -0.40100
C1109       C  0.67193612  0.28593229  0.77681383    -0.05100
C1110       C  0.67994120  0.31299637  0.77287128     0.09100
C1111       C  0.70772351  0.31924903  0.76669506    -0.02400
C1112       C  0.72752156  0.29848733  0.76458086    -0.00700
C1113       C  0.71924669  0.27135299  0.76726180    -0.04300
C1114       C  0.69152349  0.26509824  0.77373762     0.02700
C1115       C  0.65948690  0.33523543  0.77632579     0.09500
C1116       C  0.71571803  0.34708325  0.76209137     0.35400
C1117       C  0.68340286  0.23722309  0.77799616     0.38900
C1118       C  0.66018060  0.35115816  0.79943465    -0.04700
C1119       C  0.64251090  0.37358012  0.80198512     0.02500
C1120       C  0.62368856  0.37984122  0.78161866    -0.04300
C1121       C  0.62240351  0.36343994  0.75883029    -0.00500
C1122       C  0.64055341  0.34133411  0.75603483    -0.03100
C1123       C  0.67960372  0.34474979  0.82030654     0.36200
C1124       C  0.60305589  0.36989904  0.73791897     0.39800
C1125       C  0.64383463  0.39029522  0.82552916     0.38900
C1126       C  0.64053941  0.32552196  0.73188579     0.35900
C1127       C  0.64364060  0.27956465  0.78419875     0.36500
C1128       C  0.75628809  0.30503372  0.75942129     0.39800
N1129       N  0.64507588  0.40366909  0.84425687    -0.38300
N1130       N  0.69525607  0.33963651  0.83680236    -0.39900
N1131       N  0.58751131  0.37513151  0.72136267    -0.37600
N1132       N  0.64060102  0.31303568  0.71253286    -0.40000
N1133       N  0.72184465  0.36933912  0.75836951    -0.39800
N1134       N  0.77928084  0.31033895  0.75562278    -0.37400
N1135       N  0.67707941  0.21498097  0.78151062    -0.38500
N1136       N  0.62110576  0.27436241  0.79012213    -0.40100
C1137       C  0.63059334  0.11010276  0.59039189    -0.05100
C1138       C  0.64699062  0.13349581  0.59310033     0.09100
C1139       C  0.64019801  0.15695433  0.57866748    -0.02400
C1140       C  0.61611987  0.15757935  0.56300716    -0.00700
C1141       C  0.59889860  0.13460371  0.56147588    -0.04300
C1142       C  0.60673274  0.11061604  0.57447654     0.02700
C1143       C  0.66926182  0.13457088  0.61356744     0.09500
C1144       C  0.65751773  0.18074111  0.58076961     0.35400
C1145       C  0.59022062  0.08642498  0.57144602     0.38900
C1146       C  0.69747844  0.13262222  0.60644275    -0.04700
C1147       C  0.71822042  0.13548768  0.62588673     0.02500
C1148       C  0.71079510  0.14041792  0.65259487    -0.04300
C1149       C  0.68242283  0.14139292  0.65970543    -0.00500
C1150       C  0.66183739  0.13890624  0.64024206    -0.03100
C1151       C  0.70509564  0.12885220  0.57890676     0.36200
C1152       C  0.67425964  0.14477263  0.68717419     0.39800
C1153       C  0.74712676  0.13474993  0.61807546     0.38900
C1154       C  0.63287691  0.14206705  0.64742502     0.35900
C1155       C  0.63785295  0.08570897  0.60459479     0.36500
C1156       C  0.60845340  0.18222105  0.54938510     0.39800
N1157       N  0.77015143  0.13416132  0.61167430    -0.38300
N1158       N  0.71111324  0.12611814  0.55688175    -0.39900
N1159       N  0.66764061  0.14737667  0.70905898    -0.37600
N1160       N  0.60975409  0.14479323  0.65290274    -0.40000
N1161       N  0.67153164  0.19957869  0.58246855    -0.39800
N1162       N  0.60234848  0.20192022  0.53857862    -0.37400
N1163       N  0.57728368  0.06697754  0.56890624    -0.38500
N1164       N  0.64345217  0.06617960  0.61592504    -0.40100
C1165       C  0.80180675  0.32113370  0.41220426    -0.05100
C1166       C  0.82898482  0.31235018  0.40646858     0.09100
C1167       C  0.85140968  0.32362699  0.42044096    -0.02400
C1168       C  0.84648345  0.34242206  0.44107753    -0.00700
C1169       C  0.81913299  0.35013315  0.44766761    -0.04300
C1170       C  0.79689774  0.33988133  0.43271195     0.02700
C1171       C  0.83341288  0.29087680  0.38587050     0.09500
C1172       C  0.87944775  0.31571662  0.41365295     0.35400
C1173       C  0.76882825  0.34841633  0.43869072     0.38900
C1174       C  0.83687224  0.29808092  0.35908354    -0.04700
C1175       C  0.83617818  0.27806374  0.33917428     0.02500
C1176       C  0.83163871  0.25069034  0.34588647    -0.04300
C1177       C  0.82993637  0.24330440  0.37281289    -0.00500
C1178       C  0.83079083  0.26334159  0.39272290    -0.03100
C1179       C  0.83982600  0.32629212  0.35199898     0.36200
C1180       C  0.82552836  0.21532370  0.38005787     0.39800
C1181       C  0.83995844  0.28566743  0.31169655     0.38900
C1182       C  0.82755448  0.25577987  0.42025800     0.35900
C1183       C  0.77884039  0.31060411  0.39701216     0.36500
C1184       C  0.86942252  0.35340226  0.45593915     0.39800
N1185       N  0.84315106  0.29175387  0.28980240    -0.38300
N1186       N  0.84205800  0.34885129  0.34646272    -0.39900
N1187       N  0.82184169  0.19308712  0.38609892    -0.37600
N1188       N  0.82489099  0.24969112  0.44221030    -0.40000
N1189       N  0.90183413  0.30949534  0.40809359    -0.39800
N1190       N  0.88768296  0.36228028  0.46780851    -0.37400
N1191       N  0.74643711  0.35530445  0.44337487    -0.38500
N1192       N  0.76068103  0.30215934  0.38471131    -0.40100
C1193       C  0.79926710  0.33397283  0.58619645    -0.05100
C1194       C  0.77820883  0.31434833  0.58446840     0.09100
C1195       C  0.76122150  0.31355849  0.56191036    -0.02400
C1196       C  0.76611107  0.33142209  0.54063606    -0.00700
C1197       C  0.78835299  0.34996153  0.54156639    -0.04300
C1198       C  0.80454784  0.35152298  0.56474340     0.02700
C1199       C  0.77609384  0.29273856  0.60513965     0.09500
C1200       C  0.73924617  0.29373804  0.56030661     0.35400
C1201       C  0.82776242  0.36999411  0.56593383     0.38900
C1202       C  0.76027699  0.29672296  0.62836680    -0.04700
C1203       C  0.76116444  0.27749500  0.64902038     0.02500
C1204       C  0.77760181  0.25393485  0.64630432    -0.04300
C1205       C  0.79132961  0.24892335  0.62200012    -0.00500
C1206       C  0.79103976  0.26847411  0.60176138    -0.03100
C1207       C  0.74333623  0.32075477  0.63104887     0.36200
C1208       C  0.80489561  0.22317135  0.61736748     0.39800
C1209       C  0.74584449  0.28242541  0.67331501     0.38900
C1210       C  0.80654921  0.26386683  0.57751450     0.35900
C1211       C  0.81615617  0.33534886  0.60978121     0.36500
C1212       C  0.74843327  0.33043736  0.51759518     0.39800
N1213       N  0.73354072  0.28621806  0.69267507    -0.38300
N1214       N  0.72965103  0.33984530  0.63312771    -0.39900
N1215       N  0.81536225  0.20250731  0.61344021    -0.37600
N1216       N  0.81893269  0.26030463  0.55816607    -0.40000
N1217       N  0.72175199  0.27787516  0.55901546    -0.39800
N1218       N  0.73426247  0.32955133  0.49925422    -0.37400
N1219       N  0.84636960  0.38463509  0.56686066    -0.38500
N1220       N  0.82947784  0.33636951  0.62869817    -0.40100
C1221       C  0.45565029  0.16401921  0.58218602    -0.05100
C1222       C  0.44823984  0.14113130  0.59725629     0.09100
C1223       C  0.46395250  0.11721997  0.59493611    -0.02400
C1224       C  0.48754071  0.11646929  0.57842773    -0.00700
C1225       C  0.49555314  0.13960466  0.56393904    -0.04300
C1226       C  0.47903060  0.16316433  0.56530187     0.02700
C1227       C  0.42604958  0.14320378  0.61795856     0.09500
C1228       C  0.45651164  0.09373785  0.61055155     0.35400
C1229       C  0.48671077  0.18689887  0.55019239     0.38900
C1230       C  0.39780307  0.14126794  0.61128323    -0.04700
C1231       C  0.37718803  0.14435099  0.63102319     0.02500
C1232       C  0.38476865  0.14972541  0.65751715    -0.04300
C1233       C  0.41316319  0.15069800  0.66420086    -0.00500
C1234       C  0.43363439  0.14739574  0.64452118    -0.03100
C1235       C  0.39000111  0.13636184  0.58405950     0.36200
C1236       C  0.42152349  0.15454772  0.69145427     0.39800
C1237       C  0.34820887  0.14293442  0.62383045     0.38900
C1238       C  0.46271354  0.14840454  0.65151647     0.35900
C1239       C  0.44012151  0.18892141  0.58529479     0.36500
C1240       C  0.50360307  0.09179711  0.57652838     0.39800
N1241       N  0.32508894  0.14171648  0.61811005    -0.38300
N1242       N  0.38370652  0.13249210  0.56234036    -0.39900
N1243       N  0.42847920  0.15755410  0.71311479    -0.37600
N1244       N  0.48595883  0.14896709  0.65685925    -0.40000
N1245       N  0.45071697  0.07510508  0.62319823    -0.39800
N1246       N  0.51612443  0.07191013  0.57524899    -0.37400
N1247       N  0.49276450  0.20580174  0.53804677    -0.38500
N1248       N  0.42780791  0.20880327  0.58801885    -0.40100
C1249       C  0.31118579  0.27308875  0.38372297    -0.05100
C1250       C  0.32667158  0.29697430  0.38040382     0.09100
C1251       C  0.33782525  0.30331477  0.35532131    -0.02400
C1252       C  0.33412740  0.28554542  0.33376409    -0.00700
C1253       C  0.31817516  0.26183338  0.33693569    -0.04300
C1254       C  0.30668033  0.25575659  0.36204904     0.02700
C1255       C  0.33022253  0.31612004  0.40307763     0.09500
C1256       C  0.35195805  0.32884117  0.35152618     0.35400
C1257       C  0.29037156  0.23145744  0.36577812     0.38900
C1258       C  0.35554183  0.31729715  0.41683561    -0.04700
C1259       C  0.35882753  0.33564265  0.43796752     0.02500
C1260       C  0.33641820  0.35198670  0.44624981    -0.04300
C1261       C  0.31122307  0.35103181  0.43224640    -0.00500
C1262       C  0.30826097  0.33338216  0.41055167    -0.03100
C1263       C  0.37789258  0.29906359  0.40970437     0.36200
C1264       C  0.28805515  0.36767769  0.44063160     0.39800
C1265       C  0.38539535  0.33813314  0.45091137     0.38900
C1266       C  0.28246658  0.33263868  0.39604118     0.35900
C1267       C  0.29940999  0.26658177  0.40939102     0.36500
C1268       C  0.34583197  0.29231690  0.30814696     0.39800
N1269       N  0.40669761  0.34042880  0.46099709    -0.38300
N1270       N  0.39562248  0.28435052  0.40411470    -0.39900
N1271       N  0.26957692  0.38096143  0.44733748    -0.37600
N1272       N  0.26195042  0.33186687  0.38437770    -0.40000
N1273       N  0.36289244  0.34940949  0.34867794    -0.39800
N1274       N  0.35533676  0.29787826  0.28781700    -0.37400
N1275       N  0.27724663  0.21217956  0.36882317    -0.38500
N1276       N  0.28981918  0.26133886  0.42976502    -0.40100
C1277       C  0.33985216  0.30622427  0.63787659    -0.05100
C1278       C  0.33053138  0.30028063  0.61213981     0.09100
C1279       C  0.31814459  0.27509525  0.60687334    -0.02400
C1280       C  0.31455108  0.25612248  0.62731247    -0.00700
C1281       C  0.32238345  0.26256811  0.65345810    -0.04300
C1282       C  0.33562576  0.28750509  0.65856585     0.02700
C1283       C  0.33307375  0.32051284  0.59034943     0.09500
C1284       C  0.30880040  0.26887847  0.58033074     0.35400
C1285       C  0.34417423  0.29430953  0.68520728     0.38900
C1286       C  0.35803802  0.32284106  0.57593617    -0.04700
C1287       C  0.35911916  0.33897502  0.55300943     0.02500
C1288       C  0.33527471  0.35293170  0.54447765    -0.04300
C1289       C  0.31064054  0.35152667  0.55953086    -0.00500
C1290       C  0.30957123  0.33538301  0.58244881    -0.03100
C1291       C  0.38240172  0.30811332  0.58435467     0.36200
C1292       C  0.28609425  0.36580206  0.55081855     0.39800
C1293       C  0.38470323  0.34106985  0.53799918     0.38900
C1294       C  0.28405254  0.33336421  0.59755321     0.35900
C1295       C  0.35339413  0.33176670  0.64310323     0.36500
C1296       C  0.30385470  0.22951484  0.62113103     0.39800
N1297       N  0.40505229  0.34279390  0.52594876    -0.38300
N1298       N  0.40190866  0.29647604  0.59109999    -0.39900
N1299       N  0.26654668  0.37720194  0.54379971    -0.37600
N1300       N  0.26372112  0.33162542  0.60962889    -0.40000
N1301       N  0.30119720  0.26417406  0.55916722    -0.39800
N1302       N  0.29564119  0.20822218  0.61601168    -0.37400
N1303       N  0.35104366  0.29970474  0.70645018    -0.38500
N1304       N  0.36433762  0.35207684  0.64729467    -0.40100
C1305       C  0.43571929  0.34869454  0.17534539    -0.05100
C1306       C  0.42835134  0.34126942  0.20136467     0.09100
C1307       C  0.44172207  0.35337155  0.22308446    -0.02400
C1308       C  0.46248708  0.37283691  0.21876937    -0.00700
C1309       C  0.46938442  0.38071354  0.19276027    -0.04300
C1310       C  0.45603519  0.36855582  0.17105561     0.02700
C1311       C  0.40722713  0.31984847  0.20582474     0.09500
C1312       C  0.43374130  0.34606071  0.24982664     0.35400
C1313       C  0.46305813  0.37672828  0.14430964     0.38900
C1314       C  0.41474358  0.29252736  0.20264096    -0.04700
C1315       C  0.39506607  0.27214311  0.20694133     0.02500
C1316       C  0.36800686  0.27892510  0.21526817    -0.04300
C1317       C  0.36008312  0.30627627  0.21741448    -0.00500
C1318       C  0.37975338  0.32676130  0.21274777    -0.03100
C1319       C  0.44282547  0.28540756  0.19504304     0.36200
C1320       C  0.33188146  0.31329968  0.22463542     0.39800
C1321       C  0.40229993  0.24419379  0.20160437     0.38900
C1322       C  0.37187408  0.35492515  0.21517145     0.35900
C1323       C  0.42214853  0.33601213  0.15304368     0.36500
C1324       C  0.47642934  0.38514899  0.24103770     0.39800
N1325       N  0.40795694  0.22197872  0.19691669    -0.38300
N1326       N  0.46521242  0.27974150  0.18894625    -0.39900
N1327       N  0.30934184  0.31893299  0.23023712    -0.37600
N1328       N  0.36565799  0.37741760  0.21713249    -0.40000
N1329       N  0.42712184  0.34035984  0.27112752    -0.39800
N1330       N  0.48768662  0.39492453  0.25875723    -0.37400
N1331       N  0.46864360  0.38331090  0.12299102    -0.38500
N1332       N  0.41133774  0.32573561  0.13533823    -0.40100
C1333       C  0.44435729  0.50900595  0.16247018    -0.05100
C1334       C  0.44827094  0.52581282  0.18466381     0.09100
C1335       C  0.47010472  0.52047282  0.20229651    -0.02400
C1336       C  0.48668565  0.49731431  0.19881983    -0.00700
C1337       C  0.48074118  0.47881324  0.17826788    -0.04300
C1338       C  0.46001470  0.48514478  0.15965472     0.02700
C1339       C  0.42678492  0.54627819  0.19182675     0.09500
C1340       C  0.47425322  0.53778109  0.22509787     0.35400
C1341       C  0.45386275  0.46648061  0.13836915     0.38900
C1342       C  0.40123515  0.53740316  0.20240488    -0.04700
C1343       C  0.38089827  0.55628870  0.20992614     0.02500
C1344       C  0.38646606  0.58410845  0.20799990    -0.04300
C1345       C  0.41223483  0.59308712  0.19816645    -0.00500
C1346       C  0.43211075  0.57417587  0.18937355    -0.03100
C1347       C  0.39616499  0.50877609  0.20611709     0.36200
C1348       C  0.41834554  0.62174846  0.19745811     0.39800
C1349       C  0.35444777  0.54715198  0.22026387     0.38900
C1350       C  0.45786157  0.58335369  0.17763429     0.35900
C1351       C  0.42328939  0.51573954  0.14324533     0.36500
C1352       C  0.50851685  0.49161856  0.21762623     0.39800
N1353       N  0.33332945  0.53994699  0.22850835    -0.38300
N1354       N  0.39230367  0.48592532  0.20909564    -0.39900
N1355       N  0.42323671  0.64461333  0.19721092    -0.37600
N1356       N  0.47831485  0.59077130  0.16812480    -0.40000
N1357       N  0.47751833  0.55151116  0.24333928    -0.39800
N1358       N  0.52603628  0.48716333  0.23251887    -0.37400
N1359       N  0.44867340  0.45143047  0.12160466    -0.38500
N1360       N  0.40654361  0.52123573  0.12788548    -0.40100
C1361       C  0.44178751  0.33873003  0.83114936    -0.05100
C1362       C  0.44225351  0.32294555  0.80792604     0.09100
C1363       C  0.46291952  0.32725577  0.78860784    -0.02400
C1364       C  0.48120241  0.34912495  0.79114303    -0.00700
C1365       C  0.47887411  0.36674072  0.81311716    -0.04300
C1366       C  0.46012758  0.36063217  0.83376249     0.02700
C1367       C  0.41920676  0.30393989  0.80215584     0.09500
C1368       C  0.46417743  0.31022187  0.76524019     0.35400
C1369       C  0.45889159  0.37765628  0.85707630     0.38900
C1370       C  0.39344258  0.31427591  0.79376315    -0.04700
C1371       C  0.37241870  0.29655715  0.78560134     0.02500
C1372       C  0.37731875  0.26848275  0.78522272    -0.04300
C1373       C  0.40283188  0.25812757  0.79433312    -0.00500
C1374       C  0.42369875  0.27584791  0.80287183    -0.03100
C1375       C  0.38902242  0.34323695  0.79242443     0.36200
C1376       C  0.40760058  0.22924300  0.79529456     0.39800
C1377       C  0.34619584  0.30731073  0.77650315     0.38900
C1378       C  0.45012535  0.26532226  0.81169773     0.35900
C1379       C  0.42144746  0.33323032  0.85162974     0.36500
C1380       C  0.50068484  0.35478224  0.76989140     0.39800
N1381       N  0.32529408  0.31592864  0.76926781    -0.38300
N1382       N  0.38556565  0.36633509  0.79132700    -0.39900
N1383       N  0.41176719  0.20626438  0.79630763    -0.37600
N1384       N  0.47132789  0.25707216  0.81854193    -0.40000
N1385       N  0.46520970  0.29651691  0.74671178    -0.39800
N1386       N  0.51618377  0.35926989  0.75293000    -0.37400
N1387       N  0.45787761  0.39121862  0.87570298    -0.38500
N1388       N  0.40511258  0.32883873  0.86787936    -0.40100
C1389       C  0.41768575  0.47407490  0.77143369    -0.05100
C1390       C  0.42167535  0.50071848  0.78058925     0.09100
C1391       C  0.44714140  0.50791307  0.79223536    -0.02400
C1392       C  0.46758855  0.48813937  0.79663287    -0.00700
C1393       C  0.46341038  0.46130798  0.78787849    -0.04300
C1394       C  0.43897873  0.45485920  0.77386358     0.02700
C1395       C  0.39907571  0.52123302  0.77811913     0.09500
C1396       C  0.45215575  0.53566636  0.80009440     0.35400
C1397       C  0.43582671  0.42855448  0.76150065     0.38900
C1398       C  0.38658056  0.53243804  0.80101030    -0.04700
C1399       C  0.36782656  0.55420701  0.79870017     0.02500
C1400       C  0.35925913  0.56279893  0.77337719    -0.04300
C1401       C  0.36843418  0.54840469  0.75088914    -0.00500
C1402       C  0.38996920  0.52951199  0.75294557    -0.03100
C1403       C  0.39332134  0.52170352  0.82688788     0.36200
C1404       C  0.35396538  0.55141626  0.72607110     0.39800
C1405       C  0.35830411  0.56799623  0.82233557     0.38900
C1406       C  0.40323434  0.51938366  0.72909766     0.35900
C1407       C  0.39137933  0.46614721  0.76011276     0.36500
C1408       C  0.49244760  0.49540680  0.81094087     0.39800
N1409       N  0.35112781  0.57861897  0.84158042    -0.38300
N1410       N  0.39873387  0.51291344  0.84741826    -0.39900
N1411       N  0.34138471  0.55296497  0.70675607    -0.37600
N1412       N  0.41386188  0.51147693  0.71003402    -0.40000
N1413       N  0.45611753  0.55776119  0.80647807    -0.39800
N1414       N  0.51234452  0.50125727  0.82220137    -0.37400
N1415       N  0.43337210  0.40758412  0.75167614    -0.38500
N1416       N  0.37044937  0.45982997  0.75100263    -0.40100
C1417       C  0.95084064  0.17506774  0.15298794    -0.05100
C1418       C  0.94639990  0.16171476  0.12875673     0.09100
C1419       C  0.92269130  0.14560123  0.12534992    -0.02400
C1420       C  0.90232435  0.14449135  0.14540245    -0.00700
C1421       C  0.90597716  0.15919335  0.16912620    -0.04300
C1422       C  0.93102694  0.17317606  0.17338992     0.02700
C1423       C  0.96588600  0.16610928  0.10624376     0.09500
C1424       C  0.91889881  0.13107350  0.10072341     0.35400
C1425       C  0.93666372  0.18513918  0.19900381     0.38900
C1426       C  0.98930452  0.14945000  0.10302677    -0.04700
C1427       C  0.00885885  0.15522861  0.08307825     0.02500
C1428       C  0.00532643  0.17807722  0.06664688    -0.04300
C1429       C  0.98081053  0.19359227  0.06874435    -0.00500
C1430       C  0.96113498  0.18755129  0.08851121    -0.03100
C1431       C  0.99341803  0.12664493  0.12054007     0.36200
C1432       C  0.97618533  0.21634115  0.05125504     0.39800
C1433       C  0.03257883  0.13759705  0.07937064     0.38900
C1434       C  0.93619966  0.20373284  0.09110051     0.35900
C1435       C  0.97523926  0.19169621  0.15650384     0.36500
C1436       C  0.87717205  0.12926375  0.14098983     0.39800
N1437       N  0.05144110  0.12347346  0.07636586    -0.38300
N1438       N  0.99666721  0.10843334  0.13450724    -0.39900
N1439       N  0.97235527  0.23434645  0.03716289    -0.37600
N1440       N  0.91621224  0.21647028  0.09326034    -0.40000
N1441       N  0.91610632  0.11955411  0.08100318    -0.39800
N1442       N  0.85721847  0.11697526  0.13731402    -0.37400
N1443       N  0.94138174  0.19430168  0.21954403    -0.38500
N1444       N  0.99454003  0.20518106  0.15928609    -0.40100
C1445       C  0.13489616  0.23419761  0.08493402    -0.05100
C1446       C  0.15044285  0.21087827  0.09098374     0.09100
C1447       C  0.14330178  0.18583457  0.07960981    -0.02400
C1448       C  0.12000833  0.18392904  0.06313980    -0.00700
C1449       C  0.10321056  0.20682405  0.05878962    -0.04300
C1450       C  0.11107799  0.23211394  0.06909022     0.02700
C1451       C  0.17204598  0.21183059  0.11192379     0.09500
C1452       C  0.15891268  0.16173027  0.08622118     0.35400
C1453       C  0.09395471  0.25566161  0.06437047     0.38900
C1454       C  0.16384177  0.21088671  0.13870106    -0.04700
C1455       C  0.18386893  0.20905364  0.15869958     0.02500
C1456       C  0.21227137  0.20737372  0.15201357    -0.04300
C1457       C  0.22053385  0.20965817  0.12521344    -0.00500
C1458       C  0.20040201  0.21201393  0.10522614    -0.03100
C1459       C  0.13462838  0.21108562  0.14556846     0.36200
C1460       C  0.24958659  0.20841253  0.11796430     0.39800
C1461       C  0.17516874  0.20952556  0.18620592     0.38900
C1462       C  0.20875520  0.21406740  0.07771505     0.35900
C1463       C  0.14274017  0.26001905  0.09611168     0.36500
C1464       C  0.11280994  0.15822920  0.05124595     0.39800
N1465       N  0.16801102  0.21023679  0.20807175    -0.38300
N1466       N  0.11128982  0.21124519  0.15082807    -0.39900
N1467       N  0.27269420  0.20746990  0.11189472    -0.37600
N1468       N  0.21544853  0.21575253  0.05577115    -0.40000
N1469       N  0.17125486  0.14250236  0.09169152    -0.39800
N1470       N  0.10718014  0.13777684  0.04161049    -0.37400
N1471       N  0.08021304  0.27441871  0.06064151    -0.38500
N1472       N  0.14906562  0.28056492  0.10513408    -0.40100
C1473       C  0.94768131  0.66056160  0.91677835    -0.05100
C1474       C  0.93782511  0.63796209  0.90265306     0.09100
C1475       C  0.95128791  0.61279166  0.90525313    -0.02400
C1476       C  0.97581709  0.61071743  0.92006175    -0.00700
C1477       C  0.98648096  0.63362985  0.93300899    -0.04300
C1478       C  0.97172667  0.65826053  0.93230379     0.02700
C1479       C  0.91572004  0.64129337  0.88231418     0.09500
C1480       C  0.94040865  0.58931993  0.89170873     0.35400
C1481       C  0.98208387  0.68153018  0.94661533     0.38900
C1482       C  0.92344495  0.64392919  0.85550098    -0.04700
C1483       C  0.90306556  0.64650040  0.83588711     0.02500
C1484       C  0.87473077  0.64746683  0.84297944    -0.04300
C1485       C  0.86695437  0.64461909  0.86982799    -0.00500
C1486       C  0.88743614  0.64123299  0.88942660    -0.03100
C1487       C  0.95253866  0.64433036  0.84817063     0.36200
C1488       C  0.83802336  0.64633608  0.87740403     0.39800
C1489       C  0.91131448  0.64760623  0.80826601     0.38900
C1490       C  0.87953096  0.63783288  0.91691012     0.35900
C1491       C  0.93400502  0.68650125  0.91417773     0.36500
C1492       C  0.99055603  0.58523776  0.92138536     0.39800
N1493       N  0.91798039  0.64828306  0.78626121    -0.38300
N1494       N  0.97576902  0.64470222  0.84249195    -0.39900
N1495       N  0.81492631  0.64783715  0.88341416    -0.37600
N1496       N  0.87329268  0.63505093  0.93886536    -0.40000
N1497       N  0.93157312  0.57068979  0.88084393    -0.39800
N1498       N  0.00236756  0.56492488  0.92241604    -0.37400
N1499       N  0.99044833  0.69990581  0.95822679    -0.38500
N1500       N  0.92326849  0.70729268  0.91210758    -0.40100
C1501       C  0.12002850  0.61657831  0.88957361    -0.05100
C1502       C  0.13277941  0.64154217  0.88398146     0.09100
C1503       C  0.12291639  0.66532011  0.89629463    -0.02400
C1504       C  0.10073080  0.66401628  0.91453545    -0.00700
C1505       C  0.08823031  0.63895581  0.92034459    -0.04300
C1506       C  0.09782221  0.61528643  0.90769854     0.02700
C1507       C  0.15689145  0.64261207  0.86532488     0.09500
C1508       C  0.13533619  0.69112928  0.88982238     0.35400
C1509       C  0.08479515  0.58956613  0.91343397     0.38900
C1510       C  0.15259318  0.64656717  0.83806362    -0.04700
C1511       C  0.17531764  0.64688139  0.82043590     0.02500
C1512       C  0.20267032  0.64476804  0.83013025    -0.04300
C1513       C  0.20688068  0.64043490  0.85745642    -0.00500
C1514       C  0.18400778  0.63903026  0.87491264    -0.03100
C1515       C  0.12478722  0.65098177  0.82829122     0.36200
C1516       C  0.23471437  0.63861936  0.86787257     0.39800
C1517       C  0.17047450  0.64854546  0.79219178     0.38900
C1518       C  0.18827028  0.63447068  0.90292303     0.35900
C1519       C  0.12964499  0.59224879  0.87643731     0.36500
C1520       C  0.09030916  0.68847263  0.92689488     0.39800
N1521       N  0.16655318  0.64950063  0.76965632    -0.38300
N1522       N  0.10262167  0.65481543  0.82058640    -0.39900
N1523       N  0.25689160  0.63722459  0.87628313    -0.37600
N1524       N  0.19143922  0.63081388  0.92529994    -0.40000
N1525       N  0.14514610  0.71174216  0.88453362    -0.39800
N1526       N  0.08188671  0.70793040  0.93677748    -0.37400
N1527       N  0.07429134  0.56911873  0.91806263    -0.38500
N1528       N  0.13725215  0.57284355  0.86588904    -0.40100
C1529       C  0.21218281  0.81471665  0.28142620    -0.05100
C1530       C  0.18377676  0.80874938  0.28470941     0.09100
C1531       C  0.17462706  0.78176034  0.28277459    -0.02400
C1532       C  0.19373985  0.76093088  0.27726911    -0.00700
C1533       C  0.22194211  0.76710905  0.27308217    -0.04300
C1534       C  0.23108811  0.79403913  0.27498493     0.02700
C1535       C  0.16339402  0.83124679  0.28820700     0.09500
C1536       C  0.14549500  0.77550666  0.28602490     0.35400
C1537       C  0.25962580  0.80063877  0.26867707     0.38900
C1538       C  0.15721917  0.84814127  0.26654580    -0.04700
C1539       C  0.13930885  0.87032208  0.26988354     0.02500
C1540       C  0.12771928  0.87599770  0.29498164    -0.04300
C1541       C  0.13290676  0.85849148  0.31639135    -0.00500
C1542       C  0.15063123  0.83605415  0.31298292    -0.03100
C1543       C  0.16930285  0.84262144  0.24075170     0.36200
C1544       C  0.12031073  0.86383464  0.34196125     0.39800
C1545       C  0.13227256  0.88702689  0.24732121     0.38900
C1546       C  0.15575944  0.81792348  0.33491264     0.35900
C1547       C  0.22189992  0.84224131  0.28437718     0.36500
C1548       C  0.18442685  0.73312368  0.27598160     0.39800
N1549       N  0.12647183  0.90027810  0.22934555    -0.38300
N1550       N  0.17904050  0.83824617  0.22022691    -0.39900
N1551       N  0.11011641  0.86814317  0.36229724    -0.37600
N1552       N  0.15958608  0.80321963  0.35228789    -0.40000
N1553       N  0.12226445  0.77052836  0.28875276    -0.39800
N1554       N  0.17702460  0.71093588  0.27502240    -0.37400
N1555       N  0.28230750  0.80577299  0.26323370    -0.38500
N1556       N  0.22970483  0.86417607  0.28677799    -0.40100
C1557       C  0.14246996  0.00904859  0.26385656    -0.05100
C1558       C  0.15564968  0.02099629  0.28578799     0.09100
C1559       C  0.15058182  0.01090001  0.31145094    -0.02400
C1560       C  0.13333017  0.98826535  0.31505937    -0.00700
C1561       C  0.12104156  0.97567397  0.29302804    -0.04300
C1562       C  0.12507201  0.98650194  0.26750261     0.02700
C1563       C  0.17641465  0.04299826  0.28180158     0.09500
C1564       C  0.16414975  0.02313553  0.33397733     0.35400
C1565       C  0.11210426  0.97374567  0.24492720     0.38900
C1566       C  0.16908375  0.07021822  0.28626195    -0.04700
C1567       C  0.18903623  0.09076344  0.28304889     0.02500
C1568       C  0.21636202  0.08412925  0.27524790    -0.04300
C1569       C  0.22388217  0.05681773  0.27177056    -0.00500
C1570       C  0.20384303  0.03636846  0.27452295    -0.03100
C1571       C  0.14086514  0.07699609  0.29364749     0.36200
C1572       C  0.25216887  0.04979310  0.26485457     0.39800
C1573       C  0.18174043  0.11863106  0.28860840     0.38900
C1574       C  0.21122591  0.00849595  0.26915417     0.35900
C1575       C  0.14776520  0.01928535  0.23745753     0.36500
C1576       C  0.12886048  0.97735287  0.34134023     0.39800
N1577       N  0.17599420  0.14081830  0.29334506    -0.38300
N1578       N  0.11828258  0.08223260  0.29945556    -0.39900
N1579       N  0.27481364  0.04427503  0.25956639    -0.37600
N1580       N  0.21697648  0.98628765  0.26455168    -0.40000
N1581       N  0.17509576  0.03296340  0.35184813    -0.39800
N1582       N  0.12527016  0.96857270  0.36227601    -0.37400
N1583       N  0.10165243  0.96348855  0.22701459    -0.38500
N1584       N  0.15216555  0.02732121  0.21637114    -0.40100
C1585       C  0.94667296  0.84619174  0.69713107    -0.05100
C1586       C  0.93340137  0.84082304  0.72144495     0.09100
C1587       C  0.93955783  0.85639008  0.74399163    -0.02400
C1588       C  0.95905985  0.87736103  0.74225327    -0.00700
C1589       C  0.97273388  0.88246015  0.71805363    -0.04300
C1590       C  0.96649371  0.86690269  0.69546756     0.02700
C1591       C  0.91287457  0.81861869  0.72344825     0.09500
C1592       C  0.92531013  0.85108721  0.76877543     0.35400
C1593       C  0.97968905  0.87296854  0.67032394     0.38900
C1594       C  0.92181586  0.79242379  0.72994402    -0.04700
C1595       C  0.90245712  0.77140475  0.73228978     0.02500
C1596       C  0.87380582  0.77684482  0.72950845    -0.04300
C1597       C  0.86494046  0.80324599  0.72309917    -0.00500
C1598       C  0.88453422  0.82398132  0.71966754    -0.03100
C1599       C  0.95094141  0.78731913  0.73482582     0.36200
C1600       C  0.83568147  0.80948657  0.72127765     0.39800
C1601       C  0.91232321  0.74408768  0.73672332     0.38900
C1602       C  0.87561054  0.85105792  0.71284611     0.35900
C1603       C  0.93921603  0.83094547  0.67373400     0.36500
C1604       C  0.96459115  0.89412532  0.76514351     0.39800
N1605       N  0.92057478  0.72240532  0.74001751    -0.38300
N1606       N  0.97412694  0.78337475  0.73897297    -0.39900
N1607       N  0.81236537  0.81464166  0.71994693    -0.37600
N1608       N  0.86863871  0.87270133  0.70739163    -0.40000
N1609       N  0.91376439  0.84676465  0.78842720    -0.39800
N1610       N  0.96886360  0.90762029  0.78335422    -0.37400
N1611       N  0.99021045  0.87794540  0.65030381    -0.38500
N1612       N  0.93302924  0.81889856  0.65506827    -0.40100
C1613       C  0.94845036  0.00878282  0.68221825    -0.05100
C1614       C  0.94439026  0.02436431  0.70524773     0.09100
C1615       C  0.96037460  0.01922699  0.72796614    -0.02400
C1616       C  0.97888073  0.99721431  0.72828003    -0.00700
C1617       C  0.98160142  0.98052258  0.70576991    -0.04300
C1618       C  0.96684511  0.98672570  0.68253192     0.02700
C1619       C  0.92118966  0.04421361  0.70646009     0.09500
C1620       C  0.95674640  0.03583044  0.75138334     0.35400
C1621       C  0.96931822  0.96939720  0.65949885     0.38900
C1622       C  0.89388923  0.03492263  0.71060027    -0.04700
C1623       C  0.87189522  0.05348454  0.71279921     0.02500
C1624       C  0.87720919  0.08143270  0.71130349    -0.04300
C1625       C  0.90443707  0.09067296  0.70633825    -0.00500
C1626       C  0.92638263  0.07205945  0.70390167    -0.03100
C1627       C  0.88864543  0.00624458  0.71360825     0.36200
C1628       C  0.90987410  0.11936896  0.70382432     0.39800
C1629       C  0.84405366  0.04385706  0.71800354     0.38900
C1630       C  0.95441814  0.08147237  0.69938897     0.35900
C1631       C  0.93271875  0.01486139  0.65861345     0.36500
C1632       C  0.99347589  0.99046603  0.75238772     0.39800
N1633       N  0.82184730  0.03616898  0.72213940    -0.38300
N1634       N  0.88456151  0.98336547  0.71605899    -0.39900
N1635       N  0.91422518  0.14224619  0.70178911    -0.37600
N1636       N  0.97684951  0.08886830  0.69592291    -0.40000
N1637       N  0.95386828  0.04919808  0.76998244    -0.39800
N1638       N  0.00495507  0.98495275  0.77167030    -0.37400
N1639       N  0.97109285  0.95545620  0.64119018    -0.38500
N1640       N  0.92004043  0.01987043  0.63990058    -0.40100
C1641       C  0.25903681  0.07829235  0.87942640    -0.05100
C1642       C  0.27416317  0.05389918  0.87841135     0.09100
C1643       C  0.29002478  0.04761353  0.85576470    -0.02400
C1644       C  0.29150219  0.06604416  0.83456543    -0.00700
C1645       C  0.27781276  0.09128683  0.83624639    -0.04300
C1646       C  0.26103695  0.09707293  0.85853135     0.02700
C1647       C  0.27325136  0.03484630  0.90132927     0.09500
C1648       C  0.30489171  0.02217864  0.85439240     0.35400
C1649       C  0.24661957  0.12271118  0.86047863     0.38900
C1650       C  0.25149157  0.01605820  0.90362611    -0.04700
C1651       C  0.24924012  0.99965279  0.92631579     0.02500
C1652       C  0.26901746  0.00167874  0.94670180    -0.04300
C1653       C  0.29122387  0.02008155  0.94405259    -0.00500
C1654       C  0.29341265  0.03647352  0.92134084    -0.03100
C1655       C  0.23120516  0.01397890  0.88270848     0.36200
C1656       C  0.31156171  0.02250351  0.96492728     0.39800
C1657       C  0.22570045  0.98177870  0.92933944     0.38900
C1658       C  0.31626884  0.05523426  0.91862428     0.35900
C1659       C  0.24158729  0.08408204  0.90217261     0.36500
C1660       C  0.30636516  0.05859499  0.81063885     0.39800
N1661       N  0.20684010  0.96763153  0.93186299    -0.38300
N1662       N  0.21512975  0.01239230  0.86591027    -0.39900
N1663       N  0.32757763  0.02458229  0.98173323    -0.37600
N1664       N  0.33458587  0.07009932  0.91641919    -0.40000
N1665       N  0.31677942  0.00189625  0.85336646    -0.39800
N1666       N  0.31794975  0.05235745  0.79149156    -0.37400
N1667       N  0.23506221  0.14313405  0.86207853    -0.38500
N1668       N  0.22755605  0.08849429  0.92029277    -0.40100
C1669       C  0.23368126  0.03829711  0.06975102    -0.05100
C1670       C  0.25556765  0.03676992  0.08801210     0.09100
C1671       C  0.27576079  0.01634012  0.08529159    -0.02400
C1672       C  0.27517875  0.99862673  0.06345306    -0.00700
C1673       C  0.25416692  0.00107386  0.04421242    -0.04300
C1674       C  0.23292920  0.02048073  0.04792977     0.02700
C1675       C  0.25884551  0.05784330  0.10901851     0.09500
C1676       C  0.29771214  0.01419673  0.10463518     0.35400
C1677       C  0.21051200  0.02237911  0.02907027     0.38900
C1678       C  0.24572763  0.05494997  0.13380794    -0.04700
C1679       C  0.25149181  0.07325511  0.15449664     0.02500
C1680       C  0.27014388  0.09494519  0.15033673    -0.04300
C1681       C  0.28215401  0.09849806  0.12496011    -0.00500
C1682       C  0.27661933  0.07993932  0.10449367    -0.03100
C1683       C  0.22649757  0.03290963  0.13802293     0.36200
C1684       C  0.29970279  0.12160668  0.11953463     0.39800
C1685       C  0.23906204  0.06897146  0.18034437     0.38900
C1686       C  0.28930852  0.08345969  0.07864512     0.35900
C1687       C  0.21237495  0.05868756  0.07312138     0.36500
C1688       C  0.29719148  0.97894166  0.06005317     0.39800
N1689       N  0.22915646  0.06552247  0.20095539    -0.38300
N1690       N  0.21101210  0.01541320  0.14127077    -0.39900
N1691       N  0.31366636  0.14000395  0.11498679    -0.37600
N1692       N  0.29937392  0.08620920  0.05800514    -0.40000
N1693       N  0.31516519  0.01259130  0.12012931    -0.39800
N1694       N  0.31470621  0.96320183  0.05730476    -0.37400
N1695       N  0.19268206  0.02392846  0.01396297    -0.38500
N1696       N  0.19536932  0.07494060  0.07592409    -0.40100
C1697       C  0.78258613  0.84058302  0.91105184    -0.05100
C1698       C  0.80232450  0.81965214  0.90892826     0.09100
C1699       C  0.82230652  0.81628244  0.92886457    -0.02400
C1700       C  0.82217038  0.83333608  0.95116925    -0.00700
C1701       C  0.80154312  0.85340672  0.95402588    -0.04300
C1702       C  0.78186964  0.85714070  0.93375573     0.02700
C1703       C  0.80113403  0.80003089  0.88648959     0.09500
C1704       C  0.84273389  0.79490204  0.92655104     0.35400
C1705       C  0.76019320  0.87725225  0.93675267     0.38900
C1706       C  0.81892962  0.80284238  0.86449776    -0.04700
C1707       C  0.81821526  0.78380333  0.84371124     0.02500
C1708       C  0.79966933  0.76165344  0.84486892    -0.04300
C1709       C  0.78233040  0.75864421  0.86737292    -0.00500
C1710       C  0.78293062  0.77788228  0.88792900    -0.03100
C1711       C  0.83800593  0.82539856  0.86336830     0.36200
C1712       C  0.76477657  0.73509269  0.87022364     0.39800
C1713       C  0.83624369  0.78747133  0.82094592     0.38900
C1714       C  0.76511121  0.77469731  0.91092652     0.35900
C1715       C  0.76293825  0.84491499  0.88990319     0.36500
C1716       C  0.84342408  0.83033608  0.97108351     0.39800
N1717       N  0.85072478  0.79038647  0.80286475    -0.38300
N1718       N  0.85326167  0.84336735  0.86259176    -0.39900
N1719       N  0.75081585  0.71634351  0.87300255    -0.37600
N1720       N  0.75093660  0.77224516  0.92928825    -0.40000
N1721       N  0.85897904  0.77781094  0.92460069    -0.39800
N1722       N  0.86049799  0.82791515  0.98685314    -0.37400
N1723       N  0.74288338  0.89324988  0.93925790    -0.38500
N1724       N  0.74738480  0.84850532  0.87294499    -0.40100
C1725       C  0.75583089  0.83341662  0.08183848    -0.05100
C1726       C  0.77783893  0.81731664  0.09119324     0.09100
C1727       C  0.80491218  0.82180684  0.08150969    -0.02400
C1728       C  0.80972929  0.84137663  0.06178146    -0.00700
C1729       C  0.78743826  0.85618781  0.05110046    -0.04300
C1730       C  0.76061502  0.85279016  0.06179120     0.02700
C1731       C  0.77301771  0.79572762  0.11151569     0.09500
C1732       C  0.82775006  0.80580265  0.09150872     0.35400
C1733       C  0.73789195  0.86881001  0.05169538     0.38900
C1734       C  0.77064934  0.76844880  0.10375767    -0.04700
C1735       C  0.77168168  0.74760505  0.12286400     0.02500
C1736       C  0.77416497  0.75399903  0.15004261    -0.04300
C1737       C  0.77410874  0.78155858  0.15779047    -0.00500
C1738       C  0.77358412  0.80224568  0.13860256    -0.03100
C1739       C  0.76734774  0.76194764  0.07598979     0.36200
C1740       C  0.77469136  0.78883165  0.18557235     0.39800
C1741       C  0.77211918  0.71969568  0.11424067     0.38900
C1742       C  0.77388508  0.83037245  0.14663653     0.35900
C1743       C  0.72821144  0.82953834  0.09244241     0.36500
C1744       C  0.83767795  0.84627721  0.05235154     0.39800
N1745       N  0.77268281  0.69750958  0.10706117    -0.38300
N1746       N  0.76435690  0.75690107  0.05384224    -0.39900
N1747       N  0.77516605  0.79490152  0.20766605    -0.37600
N1748       N  0.77385708  0.85285133  0.15290162    -0.40000
N1749       N  0.84587610  0.79290303  0.09945652    -0.39800
N1750       N  0.86002429  0.85037714  0.04507350    -0.37400
N1751       N  0.71982275  0.88174513  0.04369262    -0.38500
N1752       N  0.70619398  0.82641276  0.10100702    -0.40100
C1753       C  0.94784267  0.18920659  0.90716752    -0.05100
C1754       C  0.94175243  0.21173591  0.89108222     0.09100
C1755       C  0.95837581  0.23511884  0.89275370    -0.02400
C1756       C  0.98189141  0.23530553  0.90914655    -0.00700
C1757       C  0.98835467  0.21249386  0.92472664    -0.04300
C1758       C  0.97058645  0.18988855  0.92448546     0.02700
C1759       C  0.91920302  0.20990369  0.87092300     0.09500
C1760       C  0.95197047  0.25855531  0.87670943     0.35400
C1761       C  0.97656897  0.16666833  0.94097278     0.38900
C1762       C  0.89111538  0.20921150  0.87881730    -0.04700
C1763       C  0.87011486  0.20561358  0.85983268     0.02500
C1764       C  0.87708447  0.20244600  0.83283388    -0.04300
C1765       C  0.90518611  0.20384726  0.82490617    -0.00500
C1766       C  0.92612460  0.20734062  0.84387039    -0.03100
C1767       C  0.88391321  0.21110208  0.90664246     0.36200
C1768       C  0.91267946  0.20190632  0.79712418     0.39800
C1769       C  0.84147355  0.20400985  0.86834209     0.38900
C1770       C  0.95495926  0.20729012  0.83563005     0.35900
C1771       C  0.93178355  0.16462673  0.90459413     0.36500
C1772       C  0.00003539  0.25862329  0.90933355     0.39800
N1773       N  0.81868413  0.20287660  0.87538150    -0.38300
N1774       N  0.87819651  0.21218561  0.92887141    -0.39900
N1775       N  0.91881997  0.20043830  0.77501557    -0.37600
N1776       N  0.97795970  0.20728195  0.82912081    -0.40000
N1777       N  0.94702952  0.27719968  0.86377975    -0.39800
N1778       N  0.01472902  0.27704812  0.90935621    -0.37400
N1779       N  0.98124169  0.14823033  0.95426927    -0.38500
N1780       N  0.91903634  0.14500943  0.90234844    -0.40100
C1781       C  0.12660156  0.18408454  0.89134241    -0.05100
C1782       C  0.13785874  0.20933553  0.88416939     0.09100
C1783       C  0.12565964  0.23338256  0.89360395    -0.02400
C1784       C  0.10229917  0.23219093  0.91029131    -0.00700
C1785       C  0.09059793  0.20698257  0.91684810    -0.04300
C1786       C  0.10277678  0.18291693  0.90745549     0.02700
C1787       C  0.16196245  0.21054210  0.86572769     0.09500
C1788       C  0.13689853  0.25929459  0.88571814     0.35400
C1789       C  0.09055294  0.15706280  0.91413813     0.38900
C1790       C  0.15743411  0.21069063  0.83824604    -0.04700
C1791       C  0.18007849  0.20965147  0.82065425     0.02500
C1792       C  0.20741049  0.20878211  0.83049952    -0.04300
C1793       C  0.21192034  0.21022672  0.85802658    -0.00500
C1794       C  0.18917573  0.21065412  0.87563529    -0.03100
C1795       C  0.12936176  0.21105538  0.82818640     0.36200
C1796       C  0.23984358  0.20990633  0.86832854     0.39800
C1797       C  0.17521529  0.20922197  0.79236329     0.38900
C1798       C  0.19363588  0.20994400  0.90396112     0.35900
C1799       C  0.13948655  0.15938702  0.88192279     0.36500
C1800       C  0.09038866  0.25683653  0.92097502     0.39800
N1801       N  0.17124068  0.20888389  0.76981988    -0.38300
N1802       N  0.10691146  0.21130663  0.82034168    -0.39900
N1803       N  0.26204160  0.20969877  0.87678103    -0.37600
N1804       N  0.19707056  0.20914441  0.92657454    -0.40000
N1805       N  0.14579877  0.27995363  0.87926745    -0.39800
N1806       N  0.08092219  0.27639727  0.92973231    -0.37400
N1807       N  0.08069156  0.13648171  0.91945628    -0.38500
N1808       N  0.14989892  0.13974293  0.87441553    -0.40100
C1809       C  0.94497269  0.67002724  0.15537349    -0.05100
C1810       C  0.94053027  0.67842392  0.12911602     0.09100
C1811       C  0.91501553  0.68997218  0.12185206    -0.02400
C1812       C  0.89336900  0.69184879  0.14053712    -0.00700
C1813       C  0.89740827  0.68235502  0.16656899    -0.04300
C1814       C  0.92354571  0.67235024  0.17418720     0.02700
C1815       C  0.96236703  0.67384875  0.10876432     0.09500
C1816       C  0.91090468  0.69904334  0.09488907     0.35400
C1817       C  0.92842857  0.66468406  0.20145257     0.38900
C1818       C  0.96293692  0.64935568  0.09457444    -0.04700
C1819       C  0.98392915  0.64457464  0.07575445     0.02500
C1820       C  0.00497123  0.66400268  0.07168856    -0.04300
C1821       C  0.00437086  0.68849019  0.08608891    -0.00500
C1822       C  0.98280663  0.69356137  0.10425126    -0.03100
C1823       C  0.94243882  0.62869966  0.10012504     0.36200
C1824       C  0.02633473  0.70815402  0.08279094     0.39800
C1825       C  0.98455812  0.61906780  0.06157851     0.38900
C1826       C  0.98183318  0.71884532  0.11870770     0.35900
C1827       C  0.97130012  0.65814778  0.16271342     0.36500
C1828       C  0.86660228  0.70230008  0.13261730     0.39800
N1829       N  0.98495740  0.59876546  0.05022827    -0.38300
N1830       N  0.92621494  0.61219041  0.10478602    -0.39900
N1831       N  0.04415215  0.72356931  0.08048872    -0.37600
N1832       N  0.98096106  0.73903611  0.13021375    -0.40000
N1833       N  0.90786512  0.70620467  0.07332297    -0.39800
N1834       N  0.84526283  0.71061987  0.12624461    -0.37400
N1835       N  0.93244435  0.65882142  0.22324421    -0.38500
N1836       N  0.99226678  0.64852374  0.16843679    -0.40100
C1837       C  0.19439894  0.67189154  0.11166833    -0.05100
C1838       C  0.18315695  0.64611348  0.10677762     0.09100
C1839       C  0.19602905  0.62312926  0.11782225    -0.02400
C1840       C  0.21784596  0.62612716  0.13612518    -0.00700
C1841       C  0.22810168  0.65217970  0.14223428    -0.04300
C1842       C  0.21758841  0.67463563  0.12816579     0.02700
C1843       C  0.15661334  0.64338045  0.09173258     0.09500
C1844       C  0.18610816  0.59642183  0.11086372     0.35400
C1845       C  0.23153038  0.70043636  0.12955811     0.38900
C1846       C  0.15508765  0.65071717  0.06480634    -0.04700
C1847       C  0.12924419  0.65171386  0.05199229     0.02500
C1848       C  0.10514236  0.64182410  0.06484294    -0.04300
C1849       C  0.10734306  0.63218622  0.09121540    -0.00500
C1850       C  0.13245325  0.63466219  0.10499233    -0.03100
C1851       C  0.18009175  0.65768953  0.05037340     0.36200
C1852       C  0.08381751  0.61996219  0.10459285     0.39800
C1853       C  0.12733784  0.66501588  0.02650161     0.38900
C1854       C  0.13314869  0.62926108  0.13320987     0.35900
C1855       C  0.18155926  0.69582157  0.10054432     0.36500
C1856       C  0.22866872  0.60240356  0.14926000     0.39800
N1857       N  0.12570068  0.67593917  0.00634478    -0.38300
N1858       N  0.20003011  0.66317124  0.03880435    -0.39900
N1859       N  0.06503893  0.61055102  0.11547791    -0.37600
N1860       N  0.13373851  0.62516653  0.15572705    -0.40000
N1861       N  0.17795796  0.57525180  0.10518072    -0.39800
N1862       N  0.23698637  0.58316718  0.15949167    -0.37400
N1863       N  0.24313906  0.72080521  0.12998611    -0.38500
N1864       N  0.17137241  0.71490186  0.09164302    -0.40100
C1865       C  0.14309597  0.82835883  0.71850453    -0.05100
C1866       C  0.16084919  0.82457982  0.69656247     0.09100
C1867       C  0.15758938  0.84061379  0.67380247    -0.02400
C1868       C  0.13865706  0.86229924  0.67406533    -0.00700
C1869       C  0.12273595  0.86771886  0.69698764    -0.04300
C1870       C  0.12411201  0.84996718  0.71878847     0.02700
C1871       C  0.18443898  0.80525415  0.69871217     0.09500
C1872       C  0.17416044  0.83509868  0.65043577     0.35400
C1873       C  0.10744605  0.85500059  0.74223597     0.38900
C1874       C  0.18039857  0.77763985  0.69348695    -0.04700
C1875       C  0.20096104  0.75876527  0.70041411     0.02500
C1876       C  0.22605298  0.76760051  0.71177889    -0.04300
C1877       C  0.23075675  0.79544420  0.71547125    -0.00500
C1878       C  0.20992097  0.81424176  0.70902037    -0.03100
C1879       C  0.15472410  0.76874375  0.68163042     0.36200
C1880       C  0.25617830  0.80458362  0.72766578     0.39800
C1881       C  0.19589433  0.73017856  0.69661711     0.38900
C1882       C  0.21415151  0.84278286  0.71401495     0.35900
C1883       C  0.14522908  0.81055253  0.74118421     0.36500
C1884       C  0.13629800  0.87979298  0.65121143     0.39800
N1885       N  0.19161702  0.70739549  0.69371117    -0.38300
N1886       N  0.13423502  0.76186482  0.67201907    -0.39900
N1887       N  0.27637847  0.81185063  0.73756177    -0.37600
N1888       N  0.21740766  0.86557134  0.71796986    -0.40000
N1889       N  0.18723154  0.83051826  0.63171349    -0.39800
N1890       N  0.13434779  0.89388966  0.63308009    -0.37400
N1891       N  0.09420346  0.85894490  0.76098976    -0.38500
N1892       N  0.14699710  0.79616159  0.75911418    -0.40100
C1893       C  0.19405562  0.04349393  0.74619127    -0.05100
C1894       C  0.19449815  0.02818954  0.72273614     0.09100
C1895       C  0.21521369  0.03298885  0.70355002    -0.02400
C1896       C  0.23409968  0.05446730  0.70681158    -0.00700
C1897       C  0.23305067  0.07068521  0.72996790    -0.04300
C1898       C  0.21412959  0.06347324  0.75047082     0.02700
C1899       C  0.17382033  0.00611791  0.71907072     0.09500
C1900       C  0.21704283  0.01571312  0.68041820     0.35400
C1901       C  0.21577627  0.07541271  0.77667165     0.38900
C1902       C  0.15257188  0.00864931  0.70015481    -0.04700
C1903       C  0.13287790  0.98789416  0.69720870     0.02500
C1904       C  0.13362146  0.96510959  0.71400045    -0.04300
C1905       C  0.15428899  0.96317510  0.73358796    -0.00500
C1906       C  0.17486491  0.98308623  0.73544419    -0.03100
C1907       C  0.15109419  0.03254505  0.68364488     0.36200
C1908       C  0.15418371  0.94082616  0.75214338     0.39800
C1909       C  0.11251065  0.98955813  0.67630341     0.38900
C1910       C  0.19738795  0.97976355  0.75404553     0.35900
C1911       C  0.17272410  0.03874087  0.76603295     0.36500
C1912       C  0.25435779  0.05955529  0.68616254     0.39800
N1913       N  0.09633270  0.99083683  0.65956221    -0.38300
N1914       N  0.15001408  0.05157205  0.67042041    -0.39900
N1915       N  0.15402387  0.92304957  0.76697765    -0.37600
N1916       N  0.21538920  0.97725174  0.76883965    -0.40000
N1917       N  0.21844860  0.00188042  0.66200450    -0.39800
N1918       N  0.27059582  0.06326707  0.66965865    -0.37400
N1919       N  0.21672444  0.08432412  0.79780868    -0.38500
N1920       N  0.15579229  0.03490632  0.78186059    -0.40100
C1921       C  0.95053785  0.82964310  0.32012420    -0.05100
C1922       C  0.94588435  0.81749868  0.29528934     0.09100
C1923       C  0.95873158  0.82837987  0.27248738    -0.02400
C1924       C  0.97435534  0.85238922  0.27425053    -0.00700
C1925       C  0.97747636  0.86543672  0.29886605    -0.04300
C1926       C  0.96668841  0.85329163  0.32194419     0.02700
C1927       C  0.92522637  0.79508458  0.29260404     0.09500
C1928       C  0.95531837  0.81519159  0.24710928     0.35400
C1929       C  0.97251161  0.86508543  0.34756297     0.38900
C1930       C  0.89730076  0.80147487  0.28756845    -0.04700
C1931       C  0.87809643  0.78081147  0.28218737     0.02500
C1932       C  0.88660039  0.75345166  0.28195120    -0.04300
C1933       C  0.91399817  0.74694024  0.28934182    -0.00500
C1934       C  0.93328080  0.76774413  0.29459045    -0.03100
C1935       C  0.88828512  0.82943057  0.28836234     0.36200
C1936       C  0.92252270  0.71891943  0.29096782     0.39800
C1937       C  0.84929917  0.78772450  0.27775907     0.38900
C1938       C  0.96132557  0.76110387  0.30224542     0.35900
C1939       C  0.93795346  0.81826074  0.34366565     0.36500
C1940       C  0.98679229  0.86402381  0.25071209     0.39800
N1941       N  0.82631522  0.79332062  0.27446392    -0.38300
N1942       N  0.88114107  0.85172610  0.28932139    -0.39900
N1943       N  0.92922489  0.69652798  0.29242254    -0.37600
N1944       N  0.98363776  0.75578653  0.30862802    -0.40000
N1945       N  0.95275804  0.80466398  0.22683330    -0.39800
N1946       N  0.99687076  0.87338134  0.23204499    -0.37400
N1947       N  0.97755650  0.87442482  0.36795279    -0.38500
N1948       N  0.92782499  0.80923208  0.36245685    -0.40100
C1949       C  0.94141859  0.00026775  0.32418447    -0.05100
C1950       C  0.93937273  0.01452903  0.30010365     0.09100
C1951       C  0.95322179  0.00467191  0.27739996    -0.02400
C1952       C  0.96917259  0.98086293  0.27880780    -0.00700
C1953       C  0.97052314  0.96612287  0.30266661    -0.04300
C1954       C  0.95630756  0.97570527  0.32527312     0.02700
C1955       C  0.92184226  0.03943042  0.29811252     0.09500
C1956       C  0.95086642  0.01900658  0.25250434     0.35400
C1957       C  0.95703780  0.96025842  0.34959190     0.38900
C1958       C  0.93425115  0.06523396  0.29726627    -0.04700
C1959       C  0.91813688  0.08830347  0.29154458     0.02500
C1960       C  0.88939237  0.08575788  0.28753468    -0.04300
C1961       C  0.87674028  0.06019065  0.29005393    -0.00500
C1962       C  0.89295728  0.03704691  0.29485351    -0.03100
C1963       C  0.96374583  0.06789119  0.30158506     0.36200
C1964       C  0.84694485  0.05771091  0.28757510     0.39800
C1965       C  0.93136074  0.11433787  0.28812447     0.38900
C1966       C  0.88005555  0.01062870  0.29528371     0.35900
C1967       C  0.92882483  0.01130585  0.34793100     0.36500
C1968       C  0.98405803  0.97134447  0.25559665     0.39800
N1969       N  0.94189278  0.13508706  0.28513658    -0.38300
N1970       N  0.98727887  0.07005424  0.30509780    -0.39900
N1971       N  0.82317259  0.05579926  0.28573794    -0.37600
N1972       N  0.86966552  0.98959626  0.29544571    -0.40000
N1973       N  0.94892498  0.03048514  0.23267847    -0.39800
N1974       N  0.99608368  0.96376053  0.23717247    -0.37400
N1975       N  0.95745960  0.94772954  0.36888983    -0.38500
N1976       N  0.91907549  0.02034485  0.36693483    -0.40100
C1977       C  0.83827176  0.02764213  0.91725361    -0.05100
C1978       C  0.81459857  0.03134578  0.90149832     0.09100
C1979       C  0.78954118  0.01860031  0.90866614    -0.02400
C1980       C  0.78783716  0.00320553  0.93210756    -0.00700
C1981       C  0.81126422  0.00032660  0.94846697    -0.04300
C1982       C  0.83657035  0.01240385  0.94079343     0.02700
C1983       C  0.81507008  0.05106604  0.87905616     0.09500
C1984       C  0.76530047  0.02202331  0.89221129     0.35400
C1985       C  0.86070372  0.00969992  0.95749835     0.38900
C1986       C  0.82237330  0.04281936  0.85321299    -0.04700
C1987       C  0.81993804  0.06107257  0.83187361     0.02500
C1988       C  0.81094910  0.08783015  0.83645605    -0.04300
C1989       C  0.80534454  0.09646801  0.86254579    -0.00500
C1990       C  0.80723901  0.07812190  0.88373532    -0.03100
C1991       C  0.83253522  0.01565303  0.84867747     0.36200
C1992       C  0.79794546  0.12438049  0.86765793     0.39800
C1993       C  0.82560182  0.05206602  0.80510514     0.38900
C1994       C  0.80113746  0.08705380  0.91047238     0.35900
C1995       C  0.86420847  0.04003225  0.90940897     0.36500
C1996       C  0.76156934  0.99162872  0.94017253     0.39800
N1997       N  0.82995832  0.04488886  0.78370463    -0.38300
N1998       N  0.84099116  0.99407799  0.84507486    -0.39900
N1999       N  0.79215331  0.14664886  0.87187453    -0.37600
N2000       N  0.79636214  0.09415171  0.93182525    -0.40000
N2001       N  0.74601349  0.02478679  0.87901958    -0.39800
N2002       N  0.74058601  0.98251640  0.94671135    -0.37400
N2003       N  0.87987135  0.00769101  0.97097094    -0.38500
N2004       N  0.88486504  0.04987295  0.90294315    -0.40100
C2005       C  0.77336800  0.02968106  0.07648952    -0.05100
C2006       C  0.79652038  0.04188903  0.08837885     0.09100
C2007       C  0.82347244  0.03488918  0.07978568    -0.02400
C2008       C  0.82714357  0.01679932  0.05844804    -0.00700
C2009       C  0.80391231  0.00491848  0.04634097    -0.04300
C2010       C  0.77708009  0.01079792  0.05593082     0.02700
C2011       C  0.79235323  0.06228885  0.10986941     0.09500
C2012       C  0.84734433  0.04635576  0.09289276     0.35400
C2013       C  0.75324679  0.99769349  0.04427883     0.38900
C2014       C  0.78725212  0.05373185  0.13601273    -0.04700
C2015       C  0.78354117  0.07292801  0.15629829     0.02500
C2016       C  0.78596102  0.10082209  0.15078927    -0.04300
C2017       C  0.78958472  0.10941816  0.12438211    -0.00500
C2018       C  0.79275127  0.09015143  0.10395875    -0.03100
C2019       C  0.78668429  0.02513273  0.14215433     0.36200
C2020       C  0.79131037  0.13797320  0.11835324     0.39800
C2021       C  0.77696170  0.06400158  0.18292714     0.38900
C2022       C  0.79709313  0.09888696  0.07689399     0.35900
C2023       C  0.74569022  0.03720795  0.08496209     0.36500
C2024       C  0.85473294  0.01046962  0.04882652     0.39800
N2025       N  0.77143261  0.05691731  0.20410632    -0.38300
N2026       N  0.78638346  0.00232422  0.14709065    -0.39900
N2027       N  0.79263644  0.16074937  0.11343632    -0.37600
N2028       N  0.80060613  0.10570848  0.05525584    -0.40000
N2029       N  0.86640499  0.05538071  0.10344116    -0.39800
N2030       N  0.87672867  0.00541233  0.04109399    -0.37400
N2031       N  0.73434299  0.98699736  0.03505207    -0.38500
N2032       N  0.72365527  0.04343626  0.09168345    -0.40100
C2033       C  0.28311895  0.83325091  0.91005231    -0.05100
C2034       C  0.26350860  0.81220307  0.90887487     0.09100
C2035       C  0.24208047  0.81100643  0.92789130    -0.02400
C2036       C  0.24057985  0.83044731  0.94830726    -0.00700
C2037       C  0.26081980  0.85096937  0.95013337    -0.04300
C2038       C  0.28185357  0.85251304  0.93061736     0.02700
C2039       C  0.26567532  0.79123327  0.88756662     0.09500
C2040       C  0.22197400  0.78934545  0.92672032     0.35400
C2041       C  0.30308148  0.87310010  0.93242177     0.38900
C2042       C  0.27839283  0.76611712  0.89272152    -0.04700
C2043       C  0.28186274  0.74704789  0.87219811     0.02500
C2044       C  0.27372231  0.75342842  0.84609096    -0.04300
C2045       C  0.26037775  0.77834969  0.84114456    -0.00500
C2046       C  0.25589132  0.79690175  0.86193838    -0.03100
C2047       C  0.28827776  0.76006091  0.91909323     0.36200
C2048       C  0.25236708  0.78552517  0.81445913     0.39800
C2049       C  0.29305604  0.72053879  0.87814854     0.38900
C2050       C  0.24128102  0.82197944  0.85702147     0.35900
C2051       C  0.30519132  0.83448391  0.89052122     0.36500
C2052       C  0.21827543  0.82925965  0.96757182     0.39800
N2053       N  0.30170020  0.69930741  0.88296546    -0.38300
N2054       N  0.29623846  0.75518115  0.94009600    -0.39900
N2055       N  0.24606914  0.79126035  0.79314751    -0.37600
N2056       N  0.22944864  0.84192246  0.85322813    -0.40000
N2057       N  0.20610549  0.77190431  0.92578307    -0.39800
N2058       N  0.20046659  0.82833560  0.98293950    -0.37400
N2059       N  0.32000323  0.88952798  0.93390518    -0.38500
N2060       N  0.32276890  0.83536667  0.87490827    -0.40100
C2061       C  0.31376430  0.80837073  0.13351225    -0.05100
C2062       C  0.28916726  0.81039168  0.11883661     0.09100
C2063       C  0.26557665  0.79612598  0.12747729    -0.02400
C2064       C  0.26668647  0.77985474  0.15034744    -0.00700
C2065       C  0.29253784  0.77371043  0.16228696    -0.04300
C2066       C  0.31590506  0.78950488  0.15441591     0.02700
C2067       C  0.28787522  0.82766622  0.09441162     0.09500
C2068       C  0.24016609  0.79758606  0.11236845     0.35400
C2069       C  0.34218015  0.78742816  0.16800537     0.38900
C2070       C  0.30233735  0.81995676  0.07123940    -0.04700
C2071       C  0.29982755  0.83530975  0.04784542     0.02500
C2072       C  0.28098622  0.85728890  0.04669376    -0.04300
C2073       C  0.26664675  0.86500458  0.07007589    -0.00500
C2074       C  0.27107979  0.85100925  0.09397637    -0.03100
C2075       C  0.31909714  0.79561442  0.07117757     0.36200
C2076       C  0.24602432  0.88633239  0.06946449     0.39800
C2077       C  0.31687721  0.82845132  0.02506734     0.38900
C2078       C  0.25795955  0.86043763  0.11816171     0.35900
C2079       C  0.33684745  0.82599911  0.12719063     0.36500
C2080       C  0.24077776  0.77113844  0.16210817     0.39800
N2081       N  0.33043640  0.82290961  0.00690800    -0.38300
N2082       N  0.33235800  0.77613220  0.07106214    -0.39900
N2083       N  0.22952014  0.90328632  0.06899517    -0.37600
N2084       N  0.24750694  0.86806541  0.13741654    -0.40000
N2085       N  0.22000000  0.79861702  0.10017684    -0.39800
N2086       N  0.21986332  0.76477824  0.17143585    -0.37400
N2087       N  0.36333102  0.78606080  0.17854415    -0.38500
N2088       N  0.35516287  0.84022716  0.12237132    -0.40100
loop_ 
_geom_bond_atom_site_label_1 
_geom_bond_atom_site_label_2 
_geom_bond_distance 
_geom_bond_site_symmetry_2 
_ccdc_geom_bond_type 
C1            C2   1.408       .  A
C1            C6   1.400       .  A
C1         C2037   1.494       .  S
C2            C3   1.415       .  A
C2            H7   1.082       .  S
C3            C4   1.412   1_556  A
C3           C66   1.504       .  S
C4            C5   1.406       .  A
C4            H8   1.082       .  S
C5            C6   1.401   1_554  A
C5         C2072   1.502       .  S
C6            H9   1.083       .  S
C10          C11   1.396   1_564  A
C10          C15   1.403       .  A
C10        C2009   1.484   1_565  S
C11          C12   1.395   1_545  A
C11          H16   1.084       .  S
C12          C13   1.405       .  A
C12        C1981   1.492   1_565  S
C13          C14   1.423   1_556  A
C13          H17   1.077       .  S
C14          C15   1.417       .  A
C14          C59   1.520       .  S
C15          H18   1.078       .  S
C19          C20   1.398       .  A
C19          C24   1.402   1_655  A
C19        C1953   1.488       .  S
C20          C21   1.399       .  A
C20          H25   1.084       .  S
C21          C22   1.402   1_655  A
C21        C1925   1.489       .  S
C22          C23   1.419       .  A
C22          H26   1.077       .  S
C23          C24   1.416       .  A
C23          C84   1.516       .  S
C24          H27   1.077       .  S
C28          C29   1.402       .  A
C28          C33   1.392       .  A
C28        C1869   1.483       .  S
C29          C30   1.418       .  A
C29          H34   1.080       .  S
C30          C31   1.415       .  A
C30          C75   1.504       .  S
C31          C32   1.403       .  A
C31          H35   1.081       .  S
C32          C33   1.394       .  A
C32        C1904   1.486       .  S
C33          H36   1.085       .  S
C37          C38   1.399       .  A
C37          C42   1.411       .  A
C37        C1848   1.501       .  S
C38          C39   1.392       .  A
C38          H43   1.082       .  S
C39          C40   1.397       .  A
C39        C1820   1.483       .  S
C40          C41   1.410       .  A
C40          H44   1.081       .  S
C41          C42   1.415       .  A
C41          C93   1.500   1_554  S
C42          H45   1.081       .  S
C46          C47   1.407       .  A
C46          C51   1.399       .  A
C46        C1757   1.487   1_455  S
C47          C48   1.415       .  A
C47          H52   1.082   1_455  S
C48          C49   1.408       .  A
C48         C102   1.495   1_556  S
C49          C50   1.395       .  A
C49          H53   1.081       .  S
C50          C51   1.393       .  A
C50        C1785   1.476       .  S
C51          H54   1.084       .  S
C55          C56   1.395       .  A
C55          C60   1.408       .  A
C55        C1729   1.490       .  S
C56          C57   1.393   1_554  A
C56          H61   1.085       .  S
C57          C58   1.401       .  A
C57        C1701   1.488       .  S
C58          C59   1.417   1_556  A
C58          H62   1.077       .  S
C59          C60   1.425       .  A
C60          H63   1.078       .  S
C64          C65   1.406       .  A
C64          C69   1.399       .  A
C64        C1652   1.489   1_565  S
C65          C66   1.412       .  A
C65          H70   1.082       .  S
C66          C67   1.416   1_556  A
C67          C68   1.405       .  A
C67          H71   1.082       .  S
C68          C69   1.398   1_554  A
C68        C1673   1.495   1_565  S
C69          H72   1.084   1_565  S
C73          C74   1.403   1_655  A
C73          C78   1.391       .  A
C73        C1617   1.479       .  S
C74          C75   1.418       .  A
C74          H79   1.081       .  S
C75          C76   1.414       .  A
C76          C77   1.400   1_455  A
C76          H80   1.080       .  S
C77          C78   1.390       .  A
C77        C1589   1.476       .  S
C78          H81   1.085       .  S
C82          C83   1.401       .  A
C82          C87   1.394       .  A
C82        C1540   1.484       .  S
C83          C84   1.418       .  A
C83          H88   1.077       .  S
C84          C85   1.421       .  A
C85          C86   1.402       .  A
C85          H89   1.077       .  S
C86          C87   1.393       .  A
C86        C1561   1.483       .  S
C87          H90   1.085       .  S
C91          C92   1.400       .  A
C91          C96   1.396       .  A
C91        C1477   1.483   1_455  S
C92          C93   1.414       .  A
C92          H97   1.081   1_455  S
C93          C94   1.413       .  A
C94          C95   1.403       .  A
C94          H98   1.081       .  S
C95          C96   1.397       .  A
C95        C1505   1.484       .  S
C96          H99   1.084       .  S
C100        C101   1.397       .  A
C100        C105   1.394       .  A
C100       C1449   1.481       .  S
C101        C102   1.414       .  A
C101        H106   1.081       .  S
C102        C103   1.411       .  A
C103        C104   1.404       .  A
C103        H107   1.082       .  S
C104        C105   1.399       .  A
C104       C1428   1.487       .  S
C105        H108   1.085       .  S
C109        C110   1.398       .  A
C109        C114   1.394       .  A
C109       C1365   1.483       .  S
C110        C111   1.411       .  A
C110        H115   1.081       .  S
C111        C112   1.409       .  A
C111        C363   1.491       .  S
C112        C113   1.404       .  A
C112        H116   1.082       .  S
C113        C114   1.399       .  A
C113       C1393   1.491       .  S
C114        H117   1.084       .  S
C118        C119   1.394       .  A
C118        C123   1.403       .  A
C118       C1309   1.479       .  S
C119        C120   1.395       .  A
C119        H124   1.085       .  S
C120        C121   1.400       .  A
C120       C1337   1.487       .  S
C121        C122   1.414       .  A
C121        H125   1.080       .  S
C122        C123   1.414       .  A
C122        C542   1.502       .  S
C123        H126   1.081       .  S
C127        C128   1.401       .  A
C127        C132   1.397       .  A
C127       C1288   1.484       .  S
C128        C129   1.413       .  A
C128        H133   1.080       .  S
C129        C130   1.419       .  A
C129        C290   1.507       .  S
C130        C131   1.405       .  A
C130        H134   1.080       .  S
C131        C132   1.396       .  A
C131       C1260   1.488       .  S
C132        H135   1.084       .  S
Zr136       O137   2.441       .  S
Zr136       O138   2.443       .  S
Zr136       O139   2.399       .  S
Zr136       O142   2.404       .  S
Zr136       O144   2.374       .  S
Zr136       O145   2.373       .  S
Zr136       O146   2.405       .  S
Zr136       O147   2.396       .  S
O137        H193   0.990       .  S
O137        H201   0.990       .  S
O138        C158   1.285       .  A
O139        C160   1.278       .  A
O140       Zr150   2.450       .  S
O140        C159   1.286       .  A
O141       Zr149   2.451       .  S
O141        C160   1.287       .  A
O142        C159   1.279       .  A
O143       Zr151   2.414       .  S
O143        C158   1.280       .  A
O144       Zr149   2.388       .  S
O144       Zr151   2.370       .  S
O145       Zr150   2.389       .  S
O145       Zr151   2.383       .  S
O145        H180   0.966       .  S
O146       Zr149   2.398       .  S
O146       Zr166   2.405       .  S
O146        H183   0.966       .  S
O147       Zr150   2.384       .  S
O147       Zr166   2.399       .  S
Zr148       O173   2.442       .  S
Zr148       O167   2.425       .  S
Zr148       O175   2.434       .  S
Zr148       O163   2.427       .  S
Zr148       O154   2.392       .  S
Zr148       O155   2.401       .  S
Zr148       O156   2.381       .  S
Zr148       O157   2.387       .  S
Zr149       O168   2.436       .  S
Zr149       O161   2.434       .  S
Zr149       O162   2.440       .  S
Zr149       O155   2.399       .  S
Zr149       O156   2.396       .  S
Zr150       O152   2.436       .  S
Zr150       O174   2.436       .  S
Zr150       O176   2.419       .  S
Zr150       O154   2.399       .  S
Zr150       O157   2.401       .  S
Zr151       O177   2.437       .  S
Zr151       O178   2.432       .  S
Zr151       O153   2.434       .  S
Zr151       O154   2.382       .  S
Zr151       O155   2.391       .  S
O152        H189   0.990       .  S
O153        H184   0.990       .  S
O153        H198   0.990       .  S
O155        H181   0.966       .  S
O156       Zr166   2.374       .  S
O157       Zr166   2.385       .  S
O157        H182   0.966       .  S
C158       C1645   1.486       .  S
C159       C1792   1.480       .  S
C160       C1897   1.500       .  S
O161        H197   0.990       .  S
O162        C164   1.286       .  A
O163        C164   1.284       .  A
C164       C1232   1.489       .  S
O165       Zr166   2.436       .  S
O165        H194   0.990       .  S
Zr166       O169   2.435       .  S
Zr166       O170   2.439       .  S
Zr166       O171   2.431       .  S
O167        C172   1.281       .  A
O168        H185   0.990       .  S
O168        H200   0.990       .  S
O169        H186   0.989       .  S
O170        H190   0.991       .  S
O170        H199   0.990       .  S
O171        C172   1.283       .  A
C172       C1281   1.487       .  S
O173        H192   0.990       .  S
O173        H196   0.990       .  S
O174        H188   0.990       .  S
O174        H195   0.990       .  S
O175        C179   1.283       .  A
O176        C179   1.281       .  A
O177        H187   0.990       .  S
O178        H191   0.990       .  S
C179       C1372   1.476       .  S
C202        C203   1.409       .  A
C202        C207   1.397       .  A
C202       C1169   1.492       .  S
C203        C204   1.420       .  A
C203        H208   1.080       .  S
C204        C205   1.421       .  A
C204        C381   1.519       .  S
C205        C206   1.406       .  A
C205        H209   1.080       .  S
C206        C207   1.397       .  A
C206       C1197   1.497       .  S
C207        H210   1.085       .  S
C211        C212   1.400       .  A
C211        C216   1.400       .  A
C211       C1141   1.487       .  S
C212        C213   1.401       .  A
C212        H217   1.084       .  S
C213        C214   1.403       .  A
C213       C1225   1.491       .  S
C214        C215   1.415       .  A
C214        H218   1.080       .  S
C215        C216   1.413       .  A
C215        C456   1.503       .  S
C216        H219   1.080       .  S
Zr220       O221   2.442       .  S
Zr220       O222   2.436       .  S
Zr220       O223   2.423       .  S
Zr220       O226   2.409       .  S
Zr220       O228   2.377       .  S
Zr220       O229   2.382       .  S
Zr220       O230   2.406       .  S
Zr220       O231   2.397       .  S
O221        H277   0.990       .  S
O221        H285   0.990       .  S
O222        C242   1.282       .  A
O223        C244   1.281       .  A
O224       Zr234   2.436       .  S
O224        C243   1.285       .  A
O225       Zr233   2.445       .  S
O225        C244   1.286       .  A
O226        C243   1.279       .  A
O227       Zr235   2.424       .  S
O227        C242   1.281       .  A
O228       Zr233   2.395       .  S
O228       Zr235   2.378       .  S
O229       Zr234   2.398       .  S
O229       Zr235   2.382       .  S
O229        H264   0.967       .  S
O230       Zr233   2.398       .  S
O230       Zr250   2.396       .  S
O230        H267   0.965       .  S
O231       Zr234   2.395       .  S
O231       Zr250   2.396       .  S
Zr232       O257   2.441       .  S
Zr232       O251   2.438       .  S
Zr232       O259   2.423       .  S
Zr232       O247   2.421       .  S
Zr232       O238   2.399       .  S
Zr232       O239   2.411       .  S
Zr232       O240   2.378       .  S
Zr232       O241   2.378       .  S
Zr233       O252   2.436       .  S
Zr233       O245   2.434       .  S
Zr233       O246   2.426       .  S
Zr233       O239   2.406       .  S
Zr233       O240   2.400       .  S
Zr234       O236   2.434       .  S
Zr234       O258   2.436       .  S
Zr234       O260   2.447       .  S
Zr234       O238   2.395       .  S
Zr234       O241   2.394       .  S
Zr235       O261   2.437       .  S
Zr235       O262   2.436       .  S
Zr235       O237   2.437       .  S
Zr235       O238   2.401       .  S
Zr235       O239   2.393       .  S
O236        H273   0.990       .  S
O237        H268   0.990       .  S
O237        H282   0.989       .  S
O239        H265   0.966       .  S
O240       Zr250   2.370       .  S
O241       Zr250   2.381       .  S
O241        H266   0.966       .  S
C242       C1988   1.482       .  S
C243       C1624   1.477       .  S
C244       C1764   1.486       .  S
O245        H281   0.989       .  S
O246        C248   1.283       .  A
O247        C248   1.281       .  A
C248       C1113   1.472       .  S
O249       Zr250   2.437       .  S
O249        H278   0.990       .  S
Zr250       O253   2.438       .  S
Zr250       O254   2.435       .  S
Zr250       O255   2.425       .  S
O251        C256   1.283       .  A
O252        H269   0.990       .  S
O252        H284   0.990       .  S
O253        H270   0.990       .  S
O254        H274   0.990       .  S
O254        H283   0.990       .  S
O255        C256   1.282       .  A
C256       C1204   1.491       .  S
O257        H276   0.990       .  S
O257        H280   0.991       .  S
O258        H272   0.990       .  S
O258        H279   0.990       .  S
O259        C263   1.283       .  A
O260        C263   1.287       .  A
O261        H271   0.990       .  S
O262        H275   0.990       .  S
C263       C1148   1.492       .  S
C286        C287   1.403       .  A
C286        C291   1.408       .  A
C286       C1085   1.503       .  S
C287        C288   1.401       .  A
C287        H292   1.083       .  S
C288        C289   1.402       .  A
C288       C1057   1.495       .  S
C289        C290   1.411       .  A
C289        H293   1.080       .  S
C290        C291   1.417       .  A
C291        H294   1.080       .  S
Zr295       O296   2.438       .  S
Zr295       O297   2.441       .  S
Zr295       O298   2.421       .  S
Zr295       O301   2.416       .  S
Zr295       O303   2.378       .  S
Zr295       O304   2.378       .  S
Zr295       O305   2.401       .  S
Zr295       O306   2.401       .  S
O296        H352   0.990       .  S
O296        H360   0.990       .  S
O297        C317   1.285       .  A
O298        C319   1.284       .  A
O299       Zr309   2.453       .  S
O299        C318   1.287       .  A
O300       Zr308   2.441       .  S
O300        C319   1.286       .  A
O301        C318   1.282       .  A
O302       Zr310   2.439       .  S
O302        C317   1.284       .  A
O303       Zr308   2.400       .  S
O303       Zr310   2.370       .  S
O304       Zr309   2.391       .  S
O304       Zr310   2.372       .  S
O304        H339   0.966       .  S
O305       Zr308   2.401       .  S
O305       Zr325   2.396       .  S
O305        H342   0.966       .  S
O306       Zr309   2.390       .  S
O306       Zr325   2.398       .  S
Zr307       O332   2.442       .  S
Zr307       O326   2.440       .  S
Zr307       O334   2.417       .  S
Zr307       O322   2.427       .  S
Zr307       O313   2.398       .  S
Zr307       O314   2.408       .  S
Zr307       O315   2.373       .  S
Zr307       O316   2.384       .  S
Zr308       O327   2.433       .  S
Zr308       O320   2.435       .  S
Zr308       O321   2.444       .  S
Zr308       O314   2.404       .  S
Zr308       O315   2.393       .  S
Zr309       O311   2.434       .  S
Zr309       O333   2.438       .  S
Zr309       O335   2.440       .  S
Zr309       O313   2.394       .  S
Zr309       O316   2.397       .  S
Zr310       O336   2.436       .  S
Zr310       O337   2.434       .  S
Zr310       O312   2.436       .  S
Zr310       O313   2.391       .  S
Zr310       O314   2.403       .  S
O311        H348   0.990       .  S
O312        H343   0.990       .  S
O312        H357   0.990       .  S
O314        H340   0.966       .  S
O315       Zr325   2.377       .  S
O316       Zr325   2.384       .  S
O316        H341   0.966       .  S
C317       C1092   1.524       .  S
C318       C1029   1.481       .  S
C319       C1400   1.485       .  S
O320        H356   0.990       .  S
O321        C323   1.286       .  A
O322        C323   1.281       .  A
C323       C1512   1.489       .  S
O324       Zr325   2.435       .  S
O324        H353   0.990       .  S
Zr325       O328   2.434       .  S
Zr325       O329   2.438       .  S
Zr325       O330   2.418       .  S
O326        C331   1.284       .  A
O327        H344   0.990       .  S
O327        H359   0.989       .  S
O328        H345   0.990       .  S
O329        H349   0.990       .  S
O329        H358   0.990       .  S
O330        C331   1.281       .  A
C331       C2044   1.489       .  S
O332        H351   0.990       .  S
O332        H355   0.990       .  S
O333        H347   0.990       .  S
O333        H354   0.990       .  S
O334        C338   1.281       .  A
O335        C338   1.285       .  A
O336        H346   0.990       .  S
O337        H350   0.990       .  S
C338       C1876   1.478       .  S
C361        C362   1.401       .  A
C361        C366   1.395       .  A
C361       C1001   1.476       .  S
C362        C363   1.413       .  A
C362        H367   1.082       .  S
C363        C364   1.409       .  A
C364        C365   1.397       .  A
C364        H368   1.081       .  S
C365        C366   1.393       .  A
C365       C1120   1.478       .  S
C366        H369   1.085       .  S
C370        C371   1.410       .  A
C370        C375   1.399       .  A
C370        C973   1.496       .  S
C371        C372   1.420       .  A
C371        H376   1.081       .  S
C372        C373   1.412       .  A
C372        C531   1.507       .  S
C373        C374   1.401       .  A
C373        H377   1.081       .  S
C374        C375   1.396       .  A
C374       C1036   1.489       .  S
C375        H378   1.084       .  S
C379        C380   1.412       .  A
C379        C384   1.400       .  A
C379        C952   1.499       .  S
C380        C381   1.424       .  A
C380        H385   1.080       .  S
C381        C382   1.419       .  A
C382        C383   1.402       .  A
C382        H386   1.080       .  S
C383        C384   1.399       .  A
C383        C917   1.493       .  S
C384        H387   1.084       .  S
Zr388       O389   2.441       .  S
Zr388       O390   2.450       .  S
Zr388       O391   2.436       .  S
Zr388       O394   2.424       .  S
Zr388       O396   2.375       .  S
Zr388       O397   2.384       .  S
Zr388       O398   2.411       .  S
Zr388       O399   2.405       .  S
O389        H445   0.990       .  S
O389        H453   0.989       .  S
O390        C410   1.285       .  A
O391        C412   1.284       .  A
O392       Zr402   2.429       .  S
O392        C411   1.284       .  A
O393       Zr401   2.444       .  S
O393        C412   1.285       .  A
O394        C411   1.283       .  A
O395       Zr403   2.428       .  S
O395        C410   1.282       .  A
O396       Zr401   2.402       .  S
O396       Zr403   2.379       .  S
O397       Zr402   2.397       .  S
O397       Zr403   2.377       .  S
O397        H432   0.966       .  S
O398       Zr401   2.400       .  S
O398       Zr418   2.396       .  S
O398        H435   0.965       .  S
O399       Zr402   2.399       .  S
O399       Zr418   2.394       .  S
Zr400       O425   2.441       .  S
Zr400       O419   2.436       .  S
Zr400       O427   2.421       .  S
Zr400       O415   2.414       .  S
Zr400       O406   2.402       .  S
Zr400       O407   2.407       .  S
Zr400       O408   2.378       .  S
Zr400       O409   2.376       .  S
Zr401       O420   2.435       .  S
Zr401       O413   2.434       .  S
Zr401       O414   2.436       .  S
Zr401       O407   2.400       .  S
Zr401       O408   2.396       .  S
Zr402       O404   2.435       .  S
Zr402       O426   2.435       .  S
Zr402       O428   2.442       .  S
Zr402       O406   2.394       .  S
Zr402       O409   2.395       .  S
Zr403       O429   2.435       .  S
Zr403       O430   2.435       .  S
Zr403       O405   2.438       .  S
Zr403       O406   2.404       .  S
Zr403       O407   2.390       .  S
O404        H441   0.990       .  S
O405        H436   0.990       .  S
O405        H450   0.990       .  S
O407        H433   0.965       .  S
O408       Zr418   2.377       .  S
O409       Zr418   2.380       .  S
O409        H434   0.966       .  S
C410        C924   1.491       .  S
C411       C1008   1.479       .  S
C412        C980   1.490       .  S
O413        H449   0.990       .  S
O414        C416   1.285       .  A
O415        C416   1.281       .  A
C416       C1596   1.481       .  S
O417       Zr418   2.434       .  S
O417        H446   0.990       .  S
Zr418       O421   2.436       .  S
Zr418       O422   2.435       .  S
Zr418       O423   2.425       .  S
O419        C424   1.283       .  A
O420        H437   0.990       .  S
O420        H452   0.990       .  S
O421        H438   0.990       .  S
O422        H442   0.990       .  S
O422        H451   0.990       .  S
O423        C424   1.282       .  A
C424       C1708   1.493       .  S
O425        H444   0.990       .  S
O425        H448   0.990       .  S
O426        H440   0.990       .  S
O426        H447   0.990       .  S
O427        C431   1.280       .  A
O428        C431   1.285       .  A
O429        H439   0.990       .  S
O430        H443   0.990       .  S
C431       C1484   1.485       .  S
C454        C455   1.401       .  A
C454        C459   1.399       .  A
C454        C889   1.484       .  S
C455        C456   1.414       .  A
C455        H460   1.080       .  S
C456        C457   1.414       .  A
C457        C458   1.400       .  A
C457        H461   1.080       .  S
C458        C459   1.399       .  A
C458        C861   1.485       .  S
C459        H462   1.084       .  S
Zr463       O464   2.440       .  S
Zr463       O465   2.436       .  S
Zr463       O466   2.429       .  S
Zr463       O469   2.425       .  S
Zr463       O471   2.383       .  S
Zr463       O472   2.383       .  S
Zr463       O473   2.403       .  S
Zr463       O474   2.394       .  S
O464        H520   0.989       .  S
O464        H528   0.990       .  S
O465        C485   1.284       .  A
O466        C487   1.284       .  A
O467       Zr477   2.453       .  S
O467        C486   1.288       .  A
O468       Zr476   2.454       .  S
O468        C487   1.288       .  A
O469        C486   1.284       .  A
O470       Zr478   2.411       .  S
O470        C485   1.280       .  A
O471       Zr476   2.395       .  S
O471       Zr478   2.372       .  S
O472       Zr477   2.394       .  S
O472       Zr478   2.378       .  S
O472        H507   0.965       .  S
O473       Zr476   2.400       .  S
O473       Zr493   2.397       .  S
O473        H510   0.966       .  S
O474       Zr477   2.391       .  S
O474       Zr493   2.389       .  S
Zr475       O500   2.442       .  S
Zr475       O494   2.431       .  S
Zr475       O502   2.420       .  S
Zr475       O490   2.416       .  S
Zr475       O481   2.392       .  S
Zr475       O482   2.407       .  S
Zr475       O483   2.379       .  S
Zr475       O484   2.381       .  S
Zr476       O495   2.435       .  S
Zr476       O488   2.435       .  S
Zr476       O489   2.451       .  S
Zr476       O482   2.406       .  S
Zr476       O483   2.399       .  S
Zr477       O479   2.435       .  S
Zr477       O501   2.435       .  S
Zr477       O503   2.440       .  S
Zr477       O481   2.394       .  S
Zr477       O484   2.397       .  S
Zr478       O504   2.434       .  S
Zr478       O505   2.435       .  S
Zr478       O480   2.437       .  S
Zr478       O481   2.385       .  S
Zr478       O482   2.395       .  S
O479        H516   0.990       .  S
O480        H511   0.990       .  S
O480        H525   0.990       .  S
O482        H508   0.967       .  S
O483       Zr493   2.377       .  S
O484       Zr493   2.384       .  S
O484        H509   0.967       .  S
C485        C868   1.477       .  S
C486       C1176   1.489       .  S
C487        C840   1.521       .  S
O488        H524   0.990       .  S
O489        C491   1.287       .  A
O490        C491   1.280       .  A
C491       C2016   1.484       .  S
O492       Zr493   2.435       .  S
O492        H521   0.990       .  S
Zr493       O496   2.435       .  S
Zr493       O497   2.435       .  S
Zr493       O498   2.417       .  S
O494        C499   1.282       .  A
O495        H512   0.990       .  S
O495        H527   0.990       .  S
O496        H513   0.990       .  S
O497        H517   0.990       .  S
O497        H526   0.989       .  S
O498        C499   1.281       .  A
C499       C1421   1.482       .  S
O500        H519   0.990       .  S
O500        H523   0.990       .  S
O501        H515   0.990       .  S
O501        H522   0.989       .  S
O502        C506   1.282       .  A
O503        C506   1.285       .  A
O504        H514   0.990       .  S
O505        H518   0.990       .  S
C506       C1960   1.482       .  S
C529        C530   1.404       .  A
C529        C534   1.399       .  A
C529        C777   1.490       .  S
C530        C531   1.418       .  A
C530        H535   1.081       .  S
C531        C532   1.413       .  A
C532        C533   1.405       .  A
C532        H536   1.081       .  S
C533        C534   1.400       .  A
C533        C805   1.490       .  S
C534        H537   1.084       .  S
C538        C539   1.404       .  A
C538        C543   1.398       .  A
C538        C756   1.495       .  S
C539        C540   1.411       .  A
C539        H544   1.083       .  S
C540        C541   1.408       .  A
C540        C833   1.504       .  S
C541        C542   1.412       .  A
C541        H545   1.081       .  S
C542        C543   1.410       .  A
C543        H546   1.080       .  S
Zr547       O548   2.442       .  S
Zr547       O549   2.430       .  S
Zr547       O550   2.441       .  S
Zr547       O553   2.424       .  S
Zr547       O555   2.381       .  S
Zr547       O556   2.385       .  S
Zr547       O557   2.406       .  S
Zr547       O558   2.400       .  S
O548        H604   0.990       .  S
O548        H612   0.990       .  S
O549        C569   1.281       .  A
O550        C571   1.285       .  A
O551       Zr561   2.464       .  S
O551        C570   1.290       .  A
O552       Zr560   2.444       .  S
O552        C571   1.286       .  A
O553        C570   1.283       .  A
O554       Zr562   2.412       .  S
O554        C569   1.279       .  A
O555       Zr560   2.406       .  S
O555       Zr562   2.383       .  S
O556       Zr561   2.398       .  S
O556       Zr562   2.379       .  S
O556        H591   0.966       .  S
O557       Zr560   2.405       .  S
O557       Zr577   2.394       .  S
O557        H594   0.965       .  S
O558       Zr561   2.395       .  S
O558       Zr577   2.387       .  S
Zr559       O584   2.441       .  S
Zr559       O578   2.436       .  S
Zr559       O586   2.419       .  S
Zr559       O574   2.442       .  S
Zr559       O565   2.408       .  S
Zr559       O566   2.400       .  S
Zr559       O567   2.375       .  S
Zr559       O568   2.387       .  S
Zr560       O579   2.434       .  S
Zr560       O572   2.435       .  S
Zr560       O573   2.457       .  S
Zr560       O566   2.398       .  S
Zr560       O567   2.393       .  S
Zr561       O563   2.436       .  S
Zr561       O585   2.438       .  S
Zr561       O587   2.461       .  S
Zr561       O565   2.400       .  S
Zr561       O568   2.401       .  S
Zr562       O588   2.439       .  S
Zr562       O589   2.435       .  S
Zr562       O564   2.435       .  S
Zr562       O565   2.393       .  S
Zr562       O566   2.391       .  S
O563        H600   0.990       .  S
O564        H595   0.990       .  S
O564        H609   0.990       .  S
O566        H592   0.966       .  S
O567       Zr577   2.384       .  S
O568       Zr577   2.378       .  S
O568        H593   0.966       .  S
C569       C1813   1.475       .  S
C570       C1736   1.497       .  S
C571       C1932   1.491       .  S
O572        H608   0.990       .  S
O573        C575   1.289       .  A
O574        C575   1.286       .  A
C575        C945   1.500       .  S
O576       Zr577   2.435       .  S
O576        H605   0.990       .  S
Zr577       O580   2.435       .  S
Zr577       O581   2.437       .  S
Zr577       O582   2.421       .  S
O578        C583   1.284       .  A
O579        H596   0.990       .  S
O579        H611   0.990       .  S
O580        H597   0.990       .  S
O581        H601   0.990       .  S
O581        H610   0.989       .  S
O582        C583   1.282       .  A
C583        C812   1.488       .  S
O584        H603   0.990       .  S
O584        H607   0.990       .  S
O585        H599   0.990       .  S
O585        H606   0.990       .  S
O586        C590   1.280       .  A
O587        C590   1.289       .  A
O588        H598   0.989       .  S
O589        H602   0.990       .  S
C590        C749   1.485       .  S
Zr613       O614   2.441       .  S
Zr613       O615   2.453       .  S
Zr613       O616   2.426       .  S
Zr613       O619   2.427       .  S
Zr613       O621   2.377       .  S
Zr613       O622   2.378       .  S
Zr613       O623   2.408       .  S
Zr613       O624   2.400       .  S
O614        H670   0.990       .  S
O614        H678   0.990       .  S
O615        C635   1.287       .  A
O616        C637   1.281       .  A
O617       Zr627   2.447       .  S
O617        C636   1.286       .  A
O618       Zr626   2.426       .  S
O618        C637   1.283       .  A
O619        C636   1.285       .  A
O620       Zr628   2.422       .  S
O620        C635   1.281       .  A
O621       Zr626   2.399       .  S
O621       Zr628   2.376       .  S
O622       Zr627   2.392       .  S
O622       Zr628   2.379       .  S
O622        H657   0.966       .  S
O623       Zr626   2.400       .  S
O623       Zr643   2.403       .  S
O623        H660   0.965       .  S
O624       Zr627   2.386       .  S
O624       Zr643   2.398       .  S
Zr625       O650   2.442       .  S
Zr625       O644   2.443       .  S
Zr625       O652   2.431       .  S
Zr625       O640   2.440       .  S
Zr625       O631   2.405       .  S
Zr625       O632   2.401       .  S
Zr625       O633   2.377       .  S
Zr625       O634   2.385       .  S
Zr626       O645   2.434       .  S
Zr626       O638   2.434       .  S
Zr626       O639   2.442       .  S
Zr626       O632   2.396       .  S
Zr626       O633   2.391       .  S
Zr627       O629   2.434       .  S
Zr627       O651   2.438       .  S
Zr627       O653   2.418       .  S
Zr627       O631   2.397       .  S
Zr627       O634   2.401       .  S
Zr628       O654   2.436       .  S
Zr628       O655   2.437       .  S
Zr628       O630   2.438       .  S
Zr628       O631   2.394       .  S
Zr628       O632   2.383       .  S
O629        H666   0.990       .  S
O630        H661   0.989       .  S
O630        H675   0.990       .  S
O632        H658   0.965       .  S
O633       Zr643   2.381       .  S
O634       Zr643   2.378       .  S
O634        H659   0.966       .  S
C635       C2065   1.519       .  S
C636       C1841   1.498       .  S
C637       C1533   1.476       .  S
O638        H674   0.990       .  S
O639        C641   1.285       .  A
O640        C641   1.287       .  A
C641        C784   1.490       .  S
O642       Zr643   2.436       .  S
O642        H671   0.990       .  S
Zr643       O646   2.438       .  S
Zr643       O647   2.438       .  S
Zr643       O648   2.433       .  S
O644        C649   1.286       .  A
O645        H662   0.990       .  S
O645        H677   0.990       .  S
O646        H663   0.990       .  S
O647        H667   0.989       .  S
O647        H676   0.990       .  S
O648        C649   1.284       .  A
C649       C1064   1.497       .  S
O650        H669   0.990       .  S
O650        H673   0.991       .  S
O651        H665   0.990       .  S
O651        H672   0.990       .  S
O652        C656   1.282       .  A
O653        C656   1.281       .  A
O654        H664   0.990       .  S
O655        H668   0.990       .  S
C656       C1344   1.471       .  S
Zr679       O680   2.439       .  S
Zr679       O681   2.438       .  S
Zr679       O682   2.424       .  S
Zr679       O685   2.421       .  S
Zr679       O687   2.378       .  S
Zr679       O688   2.380       .  S
Zr679       O689   2.404       .  S
Zr679       O690   2.401       .  S
O680        H736   0.990       .  S
O680        H744   0.989       .  S
O681        C701   1.285       .  A
O682        C703   1.282       .  A
O683       Zr693   2.443       .  S
O683        C702   1.286       .  A
O684       Zr692   2.425       .  S
O684        C703   1.282       .  A
O685        C702   1.283       .  A
O686       Zr694   2.424       .  S
O686        C701   1.283       .  A
O687       Zr692   2.393       .  S
O687       Zr694   2.373       .  S
O688       Zr693   2.390       .  S
O688       Zr694   2.379       .  S
O688        H723   0.966       .  S
O689       Zr692   2.400       .  S
O689       Zr709   2.400       .  S
O689        H726   0.966       .  S
O690       Zr693   2.389       .  S
O690       Zr709   2.398       .  S
Zr691       O716   2.439       .  S
Zr691       O710   2.426       .  S
Zr691       O718   2.421       .  S
Zr691       O706   2.430       .  S
Zr691       O697   2.396       .  S
Zr691       O698   2.400       .  S
Zr691       O699   2.378       .  S
Zr691       O700   2.384       .  S
Zr692       O711   2.437       .  S
Zr692       O704   2.435       .  S
Zr692       O705   2.428       .  S
Zr692       O698   2.399       .  S
Zr692       O699   2.393       .  S
Zr693       O695   2.435       .  S
Zr693       O717   2.436       .  S
Zr693       O719   2.439       .  S
Zr693       O697   2.395       .  S
Zr693       O700   2.397       .  S
Zr694       O720   2.433       .  S
Zr694       O721   2.435       .  S
Zr694       O696   2.437       .  S
Zr694       O697   2.393       .  S
Zr694       O698   2.394       .  S
O695        H732   0.990       .  S
O696        H727   0.990       .  S
O696        H741   0.990       .  S
O698        H724   0.966       .  S
O699       Zr709   2.375       .  S
O700       Zr709   2.382       .  S
O700        H725   0.966       .  S
C701       C1253   1.488       .  S
C702        C896   1.485       .  S
C703       C1316   1.474       .  S
O704        H740   0.990       .  S
O705        C707   1.283       .  A
O706        C707   1.283       .  A
C707       C1456   1.483       .  S
O708       Zr709   2.436       .  S
O708        H737   0.990       .  S
Zr709       O712   2.438       .  S
Zr709       O713   2.438       .  S
Zr709       O714   2.435       .  S
O710        C715   1.282       .  A
O711        H728   0.990       .  S
O711        H743   0.990       .  S
O712        H729   0.990       .  S
O713        H733   0.990       .  S
O713        H742   0.989       .  S
O714        C715   1.284       .  A
C715       C1680   1.493       .  S
O716        H735   0.989       .  S
O716        H739   0.990       .  S
O717        H731   0.990       .  S
O717        H738   0.990       .  S
O718        C722   1.282       .  A
O719        C722   1.285       .  A
O720        H730   0.990       .  S
O721        H734   0.990       .  S
C722       C1568   1.481       .  S
C745        C746   1.413       .  A
C745        C750   1.414       .  A
C745        C763   1.450       .  S
C746        C747   1.413       .  A
C746        C751   1.504       .  S
C747        C748   1.413       .  A
C747        C752   1.450       .  S
C748        C749   1.413       .  A
C748        C764   1.451       .  S
C749        C750   1.413       .  A
C750        C753   1.450       .  S
C751        C754   1.410       .  A
C751        C758   1.415       .  A
C752        N769   1.157       .  T
C753        N771   1.157       .  T
C754        C755   1.412       .  A
C754        C759   1.450       .  S
C755        C756   1.417       .  A
C755        C761   1.451       .  S
C756        C757   1.412       .  A
C757        C758   1.415       .  A
C757        C760   1.450       .  S
C758        C762   1.450       .  S
C759        N766   1.157       .  T
C760        N767   1.157       .  T
C761        N765   1.157       .  T
C762        N768   1.157       .  T
C763        N772   1.157       .  T
C764        N770   1.157       .  T
C773        C774   1.412       .  A
C773        C778   1.413       .  A
C773        C791   1.449       .  S
C774        C775   1.412       .  A
C774        C779   1.501       .  S
C775        C776   1.412       .  A
C775        C780   1.451       .  S
C776        C777   1.413       .  A
C776        C792   1.450       .  S
C777        C778   1.412       .  A
C778        C781   1.450       .  S
C779        C782   1.412       .  A
C779        C786   1.412       .  A
C780        N797   1.157       .  T
C781        N799   1.157       .  T
C782        C783   1.410       .  A
C782        C787   1.451       .  S
C783        C784   1.414       .  A
C783        C789   1.452       .  S
C784        C785   1.415       .  A
C785        C786   1.415       .  A
C785        C788   1.450       .  S
C786        C790   1.450       .  S
C787        N794   1.157       .  T
C788        N795   1.157       .  T
C789        N793   1.157       .  T
C790        N796   1.157       .  T
C791        N800   1.157       .  T
C792        N798   1.157       .  T
C801        C802   1.411       .  A
C801        C806   1.409       .  A
C801        C819   1.451       .  S
C802        C803   1.411       .  A
C802        C807   1.497       .  S
C803        C804   1.413       .  A
C803        C808   1.450       .  S
C804        C805   1.414       .  A
C804        C820   1.450       .  S
C805        C806   1.414       .  A
C806        C809   1.451       .  S
C807        C810   1.410       .  A
C807        C814   1.411       .  A
C808        N825   1.157       .  T
C809        N827   1.157       .  T
C810        C811   1.412       .  A
C810        C815   1.450       .  S
C811        C812   1.417       .  A
C811        C817   1.451       .  S
C812        C813   1.415       .  A
C813        C814   1.410       .  A
C813        C816   1.451       .  S
C814        C818   1.452       .  S
C815        N822   1.157       .  T
C816        N823   1.157       .  T
C817        N821   1.157       .  T
C818        N824   1.157       .  T
C819        N828   1.157       .  T
C820        N826   1.157       .  T
C829        C830   1.414       .  A
C829        C834   1.414       .  A
C829        C847   1.450       .  S
C830        C831   1.414       .  A
C830        C835   1.509       .  S
C831        C832   1.414       .  A
C831        C836   1.452       .  S
C832        C833   1.420       .  A
C832        C848   1.452       .  S
C833        C834   1.416       .  A
C834        C837   1.450       .  S
C835        C838   1.409       .  A
C835        C842   1.412       .  A
C836        N853   1.157       .  T
C837        N855   1.157       .  T
C838        C839   1.411       .  A
C838        C843   1.453       .  S
C839        C840   1.428       .  A
C839        C845   1.452       .  S
C840        C841   1.428       .  A
C841        C842   1.419       .  A
C841        C844   1.451       .  S
C842        C846   1.452       .  S
C843        N850   1.157       .  T
C844        N851   1.158       .  T
C845        N849   1.158       .  T
C846        N852   1.157       .  T
C847        N856   1.157       .  T
C848        N854   1.158       .  T
C857        C858   1.409       .  A
C857        C862   1.409       .  A
C857        C875   1.450       .  S
C858        C859   1.412       .  A
C858        C863   1.492       .  S
C859        C860   1.411       .  A
C859        C864   1.451       .  S
C860        C861   1.413       .  A
C860        C876   1.451       .  S
C861        C862   1.412       .  A
C862        C865   1.449       .  S
C863        C866   1.412       .  A
C863        C870   1.409       .  A
C864        N881   1.157       .  T
C865        N883   1.157       .  T
C866        C867   1.414       .  A
C866        C871   1.450       .  S
C867        C868   1.412       .  A
C867        C873   1.450       .  S
C868        C869   1.411       .  A
C869        C870   1.404       .  A
C869        C872   1.452       .  S
C870        C874   1.451       .  S
C871        N878   1.157       .  T
C872        N879   1.157       .  T
C873        N877   1.157       .  T
C874        N880   1.157       .  T
C875        N884   1.157       .  T
C876        N882   1.157       .  T
C885        C886   1.412       .  A
C885        C890   1.413       .  A
C885        C903   1.450       .  S
C886        C887   1.411       .  A
C886        C891   1.495       .  S
C887        C888   1.408       .  A
C887        C892   1.451       .  S
C888        C889   1.412       .  A
C888        C904   1.451       .  S
C889        C890   1.411       .  A
C890        C893   1.449       .  S
C891        C894   1.411       .  A
C891        C898   1.411       .  A
C892        N909   1.157       .  T
C893        N911   1.157       .  T
C894        C895   1.412       .  A
C894        C899   1.450       .  S
C895        C896   1.414       .  A
C895        C901   1.450       .  S
C896        C897   1.414       .  A
C897        C898   1.410       .  A
C897        C900   1.451       .  S
C898        C902   1.451       .  S
C899        N906   1.157       .  T
C900        N907   1.157       .  T
C901        N905   1.157       .  T
C902        N908   1.157       .  T
C903        N912   1.157       .  T
C904        N910   1.157       .  T
C913        C914   1.413       .  A
C913        C918   1.413       .  A
C913        C931   1.449       .  S
C914        C915   1.413       .  A
C914        C919   1.505       .  S
C915        C916   1.415       .  A
C915        C920   1.450       .  S
C916        C917   1.414       .  A
C916        C932   1.450       .  S
C917        C918   1.411       .  A
C918        C921   1.450       .  S
C919        C922   1.413       .  A
C919        C926   1.412       .  A
C920        N937   1.157       .  T
C921        N939   1.157       .  T
C922        C923   1.414       .  A
C922        C927   1.450       .  S
C923        C924   1.413       .  A
C923        C929   1.451       .  S
C924        C925   1.414       .  A
C925        C926   1.415       .  A
C925        C928   1.450       .  S
C926        C930   1.449       .  S
C927        N934   1.157       .  T
C928        N935   1.157       .  T
C929        N933   1.157       .  T
C930        N936   1.157       .  T
C931        N940   1.157       .  T
C932        N938   1.157       .  T
C941        C942   1.415       .  A
C941        C946   1.419       .  A
C941        C959   1.449       .  S
C942        C943   1.411       .  A
C942        C947   1.511       .  S
C943        C944   1.415       .  A
C943        C948   1.450       .  S
C944        C945   1.417       .  A
C944        C960   1.450       .  S
C945        C946   1.415       .  A
C946        C949   1.450       .  S
C947        C950   1.414       .  A
C947        C954   1.414       .  A
C948        N965   1.157       .  T
C949        N967   1.157       .  T
C950        C951   1.416       .  A
C950        C955   1.450       .  S
C951        C952   1.412       .  A
C951        C957   1.450       .  S
C952        C953   1.414       .  A
C953        C954   1.418       .  A
C953        C956   1.450       .  S
C954        C958   1.449       .  S
C955        N962   1.157       .  T
C956        N963   1.157       .  T
C957        N961   1.157       .  T
C958        N964   1.157       .  T
C959        N968   1.157       .  T
C960        N966   1.157       .  T
C969        C970   1.413       .  A
C969        C974   1.414       .  A
C969        C987   1.451       .  S
C970        C971   1.412       .  A
C970        C975   1.504       .  S
C971        C972   1.413       .  A
C971        C976   1.451       .  S
C972        C973   1.416       .  A
C972        C988   1.451       .  S
C973        C974   1.415       .  A
C974        C977   1.451       .  S
C975        C978   1.414       .  A
C975        C982   1.412       .  A
C976        N993   1.157       .  T
C977        N995   1.157       .  T
C978        C979   1.417       .  A
C978        C983   1.450       .  S
C979        C980   1.414       .  A
C979        C985   1.449       .  S
C980        C981   1.415       .  A
C981        C982   1.408       .  A
C981        C984   1.452       .  S
C982        C986   1.452       .  S
C983        N990   1.157       .  T
C984        N991   1.157       .  T
C985        N989   1.157       .  T
C986        N992   1.157       .  T
C987        N996   1.157       .  T
C988        N994   1.157       .  T
C997        C998   1.412       .  A
C997       C1002   1.408       .  A
C997       C1015   1.451       .  S
C998        C999   1.411       .  A
C998       C1003   1.490       .  S
C999       C1000   1.407       .  A
C999       C1004   1.450       .  S
C1000      C1001   1.410       .  A
C1000      C1016   1.450       .  S
C1001      C1002   1.410       .  A
C1002      C1005   1.451       .  S
C1003      C1006   1.408       .  A
C1003      C1010   1.411       .  A
C1004      N1021   1.157       .  T
C1005      N1023   1.157       .  T
C1006      C1007   1.408       .  A
C1006      C1011   1.451       .  S
C1007      C1008   1.415       .  A
C1007      C1013   1.450       .  S
C1008      C1009   1.412       .  A
C1009      C1010   1.409       .  A
C1009      C1012   1.451       .  S
C1010      C1014   1.451       .  S
C1011      N1018   1.157       .  T
C1012      N1019   1.157       .  T
C1013      N1017   1.157       .  T
C1014      N1020   1.157       .  T
C1015      N1024   1.157       .  T
C1016      N1022   1.157       .  T
C1025      C1026   1.411       .  A
C1025      C1030   1.409       .  A
C1025      C1043   1.451       .  S
C1026      C1027   1.411       .  A
C1026      C1031   1.496       .  S
C1027      C1028   1.413       .  A
C1027      C1032   1.450       .  S
C1028      C1029   1.412       .  A
C1028      C1044   1.450       .  S
C1029      C1030   1.412       .  A
C1030      C1033   1.451       .  S
C1031      C1034   1.410       .  A
C1031      C1038   1.411       .  A
C1032      N1049   1.157       .  T
C1033      N1051   1.157       .  T
C1034      C1035   1.411       .  A
C1034      C1039   1.450       .  S
C1035      C1036   1.415       .  A
C1035      C1041   1.451       .  S
C1036      C1037   1.413       .  A
C1037      C1038   1.409       .  A
C1037      C1040   1.451       .  S
C1038      C1042   1.451       .  S
C1039      N1046   1.157       .  T
C1040      N1047   1.157       .  T
C1041      N1045   1.157       .  T
C1042      N1048   1.157       .  T
C1043      N1052   1.157       .  T
C1044      N1050   1.157       .  T
C1053      C1054   1.410       .  A
C1053      C1058   1.411       .  A
C1053      C1071   1.450       .  S
C1054      C1055   1.411       .  A
C1054      C1059   1.499       .  S
C1055      C1056   1.412       .  A
C1055      C1060   1.450       .  S
C1056      C1057   1.415       .  A
C1056      C1072   1.451       .  S
C1057      C1058   1.418       .  A
C1058      C1061   1.452       .  S
C1059      C1062   1.410       .  A
C1059      C1066   1.408       .  A
C1060      N1077   1.157       .  T
C1061      N1079   1.157       .  T
C1062      C1063   1.416       .  A
C1062      C1067   1.450       .  S
C1063      C1064   1.418       .  A
C1063      C1069   1.449       .  S
C1064      C1065   1.418       .  A
C1065      C1066   1.410       .  A
C1065      C1068   1.448       .  S
C1066      C1070   1.452       .  S
C1067      N1074   1.157       .  T
C1068      N1075   1.156       .  T
C1069      N1073   1.157       .  T
C1070      N1076   1.157       .  T
C1071      N1080   1.157       .  T
C1072      N1078   1.157       .  T
C1081      C1082   1.413       .  A
C1081      C1086   1.413       .  A
C1081      C1099   1.452       .  S
C1082      C1083   1.413       .  A
C1082      C1087   1.508       .  S
C1083      C1084   1.415       .  A
C1083      C1088   1.450       .  S
C1084      C1085   1.417       .  A
C1084      C1100   1.451       .  S
C1085      C1086   1.418       .  A
C1086      C1089   1.452       .  S
C1087      C1090   1.409       .  A
C1087      C1094   1.408       .  A
C1088      N1105   1.157       .  T
C1089      N1107   1.157       .  T
C1090      C1091   1.418       .  A
C1090      C1095   1.452       .  S
C1091      C1092   1.431       .  A
C1091      C1097   1.452       .  S
C1092      C1093   1.430       .  A
C1093      C1094   1.413       .  A
C1093      C1096   1.452       .  S
C1094      C1098   1.454       .  S
C1095      N1102   1.157       .  T
C1096      N1103   1.157       .  T
C1097      N1101   1.158       .  T
C1098      N1104   1.157       .  T
C1099      N1108   1.157       .  T
C1100      N1106   1.157       .  T
C1109      C1110   1.410       .  A
C1109      C1114   1.407       .  A
C1109      C1127   1.451       .  S
C1110      C1111   1.412       .  A
C1110      C1115   1.488       .  S
C1111      C1112   1.407       .  A
C1111      C1116   1.451       .  S
C1112      C1113   1.409       .  A
C1112      C1128   1.450       .  S
C1113      C1114   1.412       .  A
C1114      C1117   1.452       .  S
C1115      C1118   1.410       .  A
C1115      C1122   1.411       .  A
C1116      N1133   1.157       .  T
C1117      N1135   1.157       .  T
C1118      C1119   1.405       .  A
C1118      C1123   1.451       .  S
C1119      C1120   1.412       .  A
C1119      C1125   1.451       .  S
C1120      C1121   1.411       .  A
C1121      C1122   1.408       .  A
C1121      C1124   1.451       .  S
C1122      C1126   1.450       .  S
C1123      N1130   1.157       .  T
C1124      N1131   1.157       .  T
C1125      N1129   1.157       .  T
C1126      N1132   1.157       .  T
C1127      N1136   1.157       .  T
C1128      N1134   1.157       .  T
C1137      C1138   1.412       .  A
C1137      C1142   1.410       .  A
C1137      C1155   1.450       .  S
C1138      C1139   1.412       .  A
C1138      C1143   1.498       .  S
C1139      C1140   1.412       .  A
C1139      C1144   1.451       .  S
C1140      C1141   1.413       .  A
C1140      C1156   1.451       .  S
C1141      C1142   1.411       .  A
C1142      C1145   1.449       .  S
C1143      C1146   1.411       .  A
C1143      C1150   1.410       .  A
C1144      N1161   1.157       .  T
C1145      N1163   1.157       .  T
C1146      C1147   1.415       .  A
C1146      C1151   1.450       .  S
C1147      C1148   1.416       .  A
C1147      C1153   1.450       .  S
C1148      C1149   1.416       .  A
C1149      C1150   1.409       .  A
C1149      C1152   1.451       .  S
C1150      C1154   1.452       .  S
C1151      N1158   1.157       .  T
C1152      N1159   1.157       .  T
C1153      N1157   1.157       .  T
C1154      N1160   1.157       .  T
C1155      N1164   1.157       .  T
C1156      N1162   1.157       .  T
C1165      C1166   1.411       .  A
C1165      C1170   1.410       .  A
C1165      C1183   1.451       .  S
C1166      C1167   1.413       .  A
C1166      C1171   1.502       .  S
C1167      C1168   1.417       .  A
C1167      C1172   1.449       .  S
C1168      C1169   1.413       .  A
C1168      C1184   1.449       .  S
C1169      C1170   1.412       .  A
C1170      C1173   1.450       .  S
C1171      C1174   1.410       .  A
C1171      C1178   1.413       .  A
C1172      N1189   1.157       .  T
C1173      N1191   1.157       .  T
C1174      C1175   1.413       .  A
C1174      C1179   1.450       .  S
C1175      C1176   1.415       .  A
C1175      C1181   1.451       .  S
C1176      C1177   1.412       .  A
C1177      C1178   1.414       .  A
C1177      C1180   1.450       .  S
C1178      C1182   1.450       .  S
C1179      N1186   1.157       .  T
C1180      N1187   1.157       .  T
C1181      N1185   1.157       .  T
C1182      N1188   1.157       .  T
C1183      N1192   1.157       .  T
C1184      N1190   1.157       .  T
C1193      C1194   1.412       .  A
C1193      C1198   1.413       .  A
C1193      C1211   1.451       .  S
C1194      C1195   1.410       .  A
C1194      C1199   1.500       .  S
C1195      C1196   1.413       .  A
C1195      C1200   1.450       .  S
C1196      C1197   1.416       .  A
C1196      C1212   1.450       .  S
C1197      C1198   1.415       .  A
C1198      C1201   1.450       .  S
C1199      C1202   1.411       .  A
C1199      C1206   1.411       .  A
C1200      N1217   1.157       .  T
C1201      N1219   1.157       .  T
C1202      C1203   1.415       .  A
C1202      C1207   1.449       .  S
C1203      C1204   1.417       .  A
C1203      C1209   1.451       .  S
C1204      C1205   1.415       .  A
C1205      C1206   1.410       .  A
C1205      C1208   1.451       .  S
C1206      C1210   1.451       .  S
C1207      N1214   1.157       .  T
C1208      N1215   1.157       .  T
C1209      N1213   1.158       .  T
C1210      N1216   1.157       .  T
C1211      N1220   1.157       .  T
C1212      N1218   1.157       .  T
C1221      C1222   1.412       .  A
C1221      C1226   1.413       .  A
C1221      C1239   1.450       .  S
C1222      C1223   1.410       .  A
C1222      C1227   1.498       .  S
C1223      C1224   1.409       .  A
C1223      C1228   1.451       .  S
C1224      C1225   1.414       .  A
C1224      C1240   1.449       .  S
C1225      C1226   1.414       .  A
C1226      C1229   1.450       .  S
C1227      C1230   1.411       .  A
C1227      C1234   1.410       .  A
C1228      N1245   1.157       .  T
C1229      N1247   1.157       .  T
C1230      C1231   1.414       .  A
C1230      C1235   1.450       .  S
C1231      C1232   1.416       .  A
C1231      C1237   1.451       .  S
C1232      C1233   1.416       .  A
C1233      C1234   1.408       .  A
C1233      C1236   1.451       .  S
C1234      C1238   1.452       .  S
C1235      N1242   1.157       .  T
C1236      N1243   1.157       .  T
C1237      N1241   1.157       .  T
C1238      N1244   1.157       .  T
C1239      N1248   1.157       .  T
C1240      N1246   1.157       .  T
C1249      C1250   1.411       .  A
C1249      C1254   1.410       .  A
C1249      C1267   1.451       .  S
C1250      C1251   1.411       .  A
C1250      C1255   1.498       .  S
C1251      C1252   1.413       .  A
C1251      C1256   1.450       .  S
C1252      C1253   1.415       .  A
C1252      C1268   1.450       .  S
C1253      C1254   1.416       .  A
C1254      C1257   1.452       .  S
C1255      C1258   1.412       .  A
C1255      C1262   1.411       .  A
C1256      N1273   1.157       .  T
C1257      N1275   1.157       .  T
C1258      C1259   1.412       .  A
C1258      C1263   1.450       .  S
C1259      C1260   1.412       .  A
C1259      C1265   1.450       .  S
C1260      C1261   1.413       .  A
C1261      C1262   1.410       .  A
C1261      C1264   1.450       .  S
C1262      C1266   1.451       .  S
C1263      N1270   1.157       .  T
C1264      N1271   1.157       .  T
C1265      N1269   1.157       .  T
C1266      N1272   1.157       .  T
C1267      N1276   1.157       .  T
C1268      N1274   1.157       .  T
C1277      C1278   1.411       .  A
C1277      C1282   1.413       .  A
C1277      C1295   1.450       .  S
C1278      C1279   1.410       .  A
C1278      C1283   1.495       .  S
C1279      C1280   1.408       .  A
C1279      C1284   1.452       .  S
C1280      C1281   1.414       .  A
C1280      C1296   1.451       .  S
C1281      C1282   1.416       .  A
C1282      C1285   1.451       .  S
C1283      C1286   1.411       .  A
C1283      C1290   1.412       .  A
C1284      N1301   1.157       .  T
C1285      N1303   1.157       .  T
C1286      C1287   1.410       .  A
C1286      C1291   1.450       .  S
C1287      C1288   1.412       .  A
C1287      C1293   1.451       .  S
C1288      C1289   1.411       .  A
C1289      C1290   1.409       .  A
C1289      C1292   1.451       .  S
C1290      C1294   1.450       .  S
C1291      N1298   1.157       .  T
C1292      N1299   1.157       .  T
C1293      N1297   1.157       .  T
C1294      N1300   1.157       .  T
C1295      N1304   1.157       .  T
C1296      N1302   1.157       .  T
C1305      C1306   1.410       .  A
C1305      C1310   1.407       .  A
C1305      C1323   1.451       .  S
C1306      C1307   1.411       .  A
C1306      C1311   1.490       .  S
C1307      C1308   1.409       .  A
C1307      C1312   1.451       .  S
C1308      C1309   1.411       .  A
C1308      C1324   1.450       .  S
C1309      C1310   1.411       .  A
C1310      C1313   1.451       .  S
C1311      C1314   1.409       .  A
C1311      C1318   1.412       .  A
C1312      N1329   1.157       .  T
C1313      N1331   1.157       .  T
C1314      C1315   1.404       .  A
C1314      C1319   1.451       .  S
C1315      C1316   1.411       .  A
C1315      C1321   1.452       .  S
C1316      C1317   1.411       .  A
C1317      C1318   1.411       .  A
C1317      C1320   1.450       .  S
C1318      C1322   1.450       .  S
C1319      N1326   1.157       .  T
C1320      N1327   1.157       .  T
C1321      N1325   1.157       .  T
C1322      N1328   1.157       .  T
C1323      N1332   1.157       .  T
C1324      N1330   1.157       .  T
C1333      C1334   1.411       .  A
C1333      C1338   1.409       .  A
C1333      C1351   1.450       .  S
C1334      C1335   1.410       .  A
C1334      C1339   1.493       .  S
C1335      C1336   1.408       .  A
C1335      C1340   1.451       .  S
C1336      C1337   1.416       .  A
C1336      C1352   1.452       .  S
C1337      C1338   1.413       .  A
C1338      C1341   1.451       .  S
C1339      C1342   1.414       .  A
C1339      C1346   1.411       .  A
C1340      N1357   1.157       .  T
C1341      N1359   1.157       .  T
C1342      C1343   1.406       .  A
C1342      C1347   1.452       .  S
C1343      C1344   1.408       .  A
C1343      C1349   1.451       .  S
C1344      C1345   1.411       .  A
C1345      C1346   1.410       .  A
C1345      C1348   1.451       .  S
C1346      C1350   1.450       .  S
C1347      N1354   1.157       .  T
C1348      N1355   1.157       .  T
C1349      N1353   1.157       .  T
C1350      N1356   1.157       .  T
C1351      N1360   1.157       .  T
C1352      N1358   1.157       .  T
C1361      C1362   1.410       .  A
C1361      C1366   1.409       .  A
C1361      C1379   1.450       .  S
C1362      C1363   1.410       .  A
C1362      C1367   1.490       .  S
C1363      C1364   1.405       .  A
C1363      C1368   1.452       .  S
C1364      C1365   1.416       .  A
C1364      C1380   1.453       .  S
C1365      C1366   1.412       .  A
C1366      C1369   1.450       .  S
C1367      C1370   1.413       .  A
C1367      C1374   1.408       .  A
C1368      N1385   1.157       .  T
C1369      N1387   1.157       .  T
C1370      C1371   1.407       .  A
C1370      C1375   1.452       .  S
C1371      C1372   1.410       .  A
C1371      C1377   1.451       .  S
C1372      C1373   1.414       .  A
C1373      C1374   1.408       .  A
C1373      C1376   1.450       .  S
C1374      C1378   1.451       .  S
C1375      N1382   1.157       .  T
C1376      N1383   1.157       .  T
C1377      N1381   1.157       .  T
C1378      N1384   1.157       .  T
C1379      N1388   1.157       .  T
C1380      N1386   1.157       .  T
C1389      C1390   1.412       .  A
C1389      C1394   1.406       .  A
C1389      C1407   1.452       .  S
C1390      C1391   1.413       .  A
C1390      C1395   1.496       .  S
C1391      C1392   1.409       .  A
C1391      C1396   1.452       .  S
C1392      C1393   1.416       .  A
C1392      C1408   1.452       .  S
C1393      C1394   1.417       .  A
C1394      C1397   1.453       .  S
C1395      C1398   1.415       .  A
C1395      C1402   1.410       .  A
C1396      N1413   1.157       .  T
C1397      N1415   1.158       .  T
C1398      C1399   1.413       .  A
C1398      C1403   1.452       .  S
C1399      C1400   1.414       .  A
C1399      C1405   1.448       .  S
C1400      C1401   1.411       .  A
C1401      C1402   1.403       .  A
C1401      C1404   1.448       .  S
C1402      C1406   1.451       .  S
C1403      N1410   1.157       .  T
C1404      N1411   1.156       .  T
C1405      N1409   1.157       .  T
C1406      N1412   1.157       .  T
C1407      N1416   1.157       .  T
C1408      N1414   1.157       .  T
C1417      C1418   1.410       .  A
C1417      C1422   1.407       .  A
C1417      C1435   1.451       .  S
C1418      C1419   1.409       .  A
C1418      C1423   1.490       .  S
C1419      C1420   1.410       .  A
C1419      C1424   1.450       .  S
C1420      C1421   1.415       .  A
C1420      C1436   1.450       .  S
C1421      C1422   1.413       .  A
C1422      C1425   1.451       .  S
C1423      C1426   1.408       .  A
C1423      C1430   1.410       .  A
C1424      N1441   1.157       .  T
C1425      N1443   1.157       .  T
C1426      C1427   1.408   1_655  A
C1426      C1431   1.450       .  S
C1427      C1428   1.415       .  A
C1427      C1433   1.451       .  S
C1428      C1429   1.414   1_455  A
C1429      C1430   1.408       .  A
C1429      C1432   1.451       .  S
C1430      C1434   1.451       .  S
C1431      N1438   1.157       .  T
C1432      N1439   1.157       .  T
C1433      N1437   1.157       .  T
C1434      N1440   1.157       .  T
C1435      N1444   1.157       .  T
C1436      N1442   1.157       .  T
C1445      C1446   1.411       .  A
C1445      C1450   1.410       .  A
C1445      C1463   1.450       .  S
C1446      C1447   1.411       .  A
C1446      C1451   1.492       .  S
C1447      C1448   1.407       .  A
C1447      C1452   1.451       .  S
C1448      C1449   1.411       .  A
C1448      C1464   1.451       .  S
C1449      C1450   1.410       .  A
C1450      C1453   1.450       .  S
C1451      C1454   1.410       .  A
C1451      C1458   1.410       .  A
C1452      N1469   1.157       .  T
C1453      N1471   1.157       .  T
C1454      C1455   1.407       .  A
C1454      C1459   1.452       .  S
C1455      C1456   1.414       .  A
C1455      C1461   1.451       .  S
C1456      C1457   1.415       .  A
C1457      C1458   1.412       .  A
C1457      C1460   1.450       .  S
C1458      C1462   1.450       .  S
C1459      N1466   1.157       .  T
C1460      N1467   1.157       .  T
C1461      N1465   1.157       .  T
C1462      N1468   1.157       .  T
C1463      N1472   1.157       .  T
C1464      N1470   1.157       .  T
C1473      C1474   1.412       .  A
C1473      C1478   1.411       .  A
C1473      C1491   1.450       .  S
C1474      C1475   1.412       .  A
C1474      C1479   1.496       .  S
C1475      C1476   1.409       .  A
C1475      C1480   1.450       .  S
C1476      C1477   1.410       .  A
C1476      C1492   1.450       .  S
C1477      C1478   1.412       .  A
C1478      C1481   1.452       .  S
C1479      C1482   1.411       .  A
C1479      C1486   1.411       .  A
C1480      N1497   1.157       .  T
C1481      N1499   1.157       .  T
C1482      C1483   1.407       .  A
C1482      C1487   1.452       .  S
C1483      C1484   1.414       .  A
C1483      C1489   1.452       .  S
C1484      C1485   1.414       .  A
C1485      C1486   1.415       .  A
C1485      C1488   1.450       .  S
C1486      C1490   1.449       .  S
C1487      N1494   1.157       .  T
C1488      N1495   1.157       .  T
C1489      N1493   1.157       .  T
C1490      N1496   1.157       .  T
C1491      N1500   1.157       .  T
C1492      N1498   1.157   1_655  T
C1501      C1502   1.411       .  A
C1501      C1506   1.409       .  A
C1501      C1519   1.450       .  S
C1502      C1503   1.412       .  A
C1502      C1507   1.496       .  S
C1503      C1504   1.412       .  A
C1503      C1508   1.450       .  S
C1504      C1505   1.412       .  A
C1504      C1520   1.451       .  S
C1505      C1506   1.411       .  A
C1506      C1509   1.451       .  S
C1507      C1510   1.409       .  A
C1507      C1514   1.411       .  A
C1508      N1525   1.157       .  T
C1509      N1527   1.157       .  T
C1510      C1511   1.411       .  A
C1510      C1515   1.451       .  S
C1511      C1512   1.416       .  A
C1511      C1517   1.451       .  S
C1512      C1513   1.415       .  A
C1513      C1514   1.412       .  A
C1513      C1516   1.450       .  S
C1514      C1518   1.450       .  S
C1515      N1522   1.157       .  T
C1516      N1523   1.157       .  T
C1517      N1521   1.157       .  T
C1518      N1524   1.157       .  T
C1519      N1528   1.157       .  T
C1520      N1526   1.157       .  T
C1529      C1530   1.414       .  A
C1529      C1534   1.408       .  A
C1529      C1547   1.451       .  S
C1530      C1531   1.412       .  A
C1530      C1535   1.496       .  S
C1531      C1532   1.410       .  A
C1531      C1536   1.450       .  S
C1532      C1533   1.412       .  A
C1532      C1548   1.451       .  S
C1533      C1534   1.409       .  A
C1534      C1537   1.452       .  S
C1535      C1538   1.412       .  A
C1535      C1542   1.413       .  A
C1536      N1553   1.157       .  T
C1537      N1555   1.157       .  T
C1538      C1539   1.407       .  A
C1538      C1543   1.452       .  S
C1539      C1540   1.412       .  A
C1539      C1545   1.452       .  S
C1540      C1541   1.411       .  A
C1541      C1542   1.412       .  A
C1541      C1544   1.450       .  S
C1542      C1546   1.450       .  S
C1543      N1550   1.157       .  T
C1544      N1551   1.157       .  T
C1545      N1549   1.157       .  T
C1546      N1552   1.157       .  T
C1547      N1556   1.157       .  T
C1548      N1554   1.157       .  T
C1557      C1558   1.412       .  A
C1557      C1562   1.411   1_545  A
C1557      C1575   1.450       .  S
C1558      C1559   1.412       .  A
C1558      C1563   1.496       .  S
C1559      C1560   1.410   1_545  A
C1559      C1564   1.450       .  S
C1560      C1561   1.411       .  A
C1560      C1576   1.450       .  S
C1561      C1562   1.411       .  A
C1562      C1565   1.450       .  S
C1563      C1566   1.411       .  A
C1563      C1570   1.412       .  A
C1564      N1581   1.157       .  T
C1565      N1583   1.157       .  T
C1566      C1567   1.412       .  A
C1566      C1571   1.450       .  S
C1567      C1568   1.414       .  A
C1567      C1573   1.451       .  S
C1568      C1569   1.411       .  A
C1569      C1570   1.409       .  A
C1569      C1572   1.451       .  S
C1570      C1574   1.450       .  S
C1571      N1578   1.157       .  T
C1572      N1579   1.157       .  T
C1573      N1577   1.157       .  T
C1574      N1580   1.157   1_545  T
C1575      N1584   1.157       .  T
C1576      N1582   1.157       .  T
C1585      C1586   1.409       .  A
C1585      C1590   1.407       .  A
C1585      C1603   1.451       .  S
C1586      C1587   1.409       .  A
C1586      C1591   1.486       .  S
C1587      C1588   1.406       .  A
C1587      C1592   1.451       .  S
C1588      C1589   1.411       .  A
C1588      C1604   1.450       .  S
C1589      C1590   1.412       .  A
C1590      C1593   1.451       .  S
C1591      C1594   1.407       .  A
C1591      C1598   1.409       .  A
C1592      N1609   1.157       .  T
C1593      N1611   1.157       .  T
C1594      C1595   1.406       .  A
C1594      C1599   1.452       .  S
C1595      C1596   1.418       .  A
C1595      C1601   1.452       .  S
C1596      C1597   1.414       .  A
C1597      C1598   1.408       .  A
C1597      C1600   1.450       .  S
C1598      C1602   1.450       .  S
C1599      N1606   1.157       .  T
C1600      N1607   1.157       .  T
C1601      N1605   1.157       .  T
C1602      N1608   1.157       .  T
C1603      N1612   1.157       .  T
C1604      N1610   1.157       .  T
C1613      C1614   1.409       .  A
C1613      C1618   1.407   1_545  A
C1613      C1631   1.450       .  S
C1614      C1615   1.411       .  A
C1614      C1619   1.491       .  S
C1615      C1616   1.409   1_545  A
C1615      C1620   1.451       .  S
C1616      C1617   1.412       .  A
C1616      C1632   1.451       .  S
C1617      C1618   1.412       .  A
C1618      C1621   1.450       .  S
C1619      C1622   1.413       .  A
C1619      C1626   1.408       .  A
C1620      N1637   1.157       .  T
C1621      N1639   1.157       .  T
C1622      C1623   1.408       .  A
C1622      C1627   1.451       .  S
C1623      C1624   1.410       .  A
C1623      C1629   1.451       .  S
C1624      C1625   1.415       .  A
C1625      C1626   1.409       .  A
C1625      C1628   1.451       .  S
C1626      C1630   1.450       .  S
C1627      N1634   1.157   1_545  T
C1628      N1635   1.157       .  T
C1629      N1633   1.157       .  T
C1630      N1636   1.157       .  T
C1631      N1640   1.157       .  T
C1632      N1638   1.157   1_655  T
C1641      C1642   1.412       .  A
C1641      C1646   1.411       .  A
C1641      C1659   1.450       .  S
C1642      C1643   1.409       .  A
C1642      C1647   1.496       .  S
C1643      C1644   1.410       .  A
C1643      C1648   1.450       .  S
C1644      C1645   1.416       .  A
C1644      C1660   1.451       .  S
C1645      C1646   1.413       .  A
C1646      C1649   1.450       .  S
C1647      C1650   1.410       .  A
C1647      C1654   1.411       .  A
C1648      N1665   1.157       .  T
C1649      N1667   1.157       .  T
C1650      C1651   1.410   1_545  A
C1650      C1655   1.450       .  S
C1651      C1652   1.413   1_565  A
C1651      C1657   1.450       .  S
C1652      C1653   1.415       .  A
C1653      C1654   1.411       .  A
C1653      C1656   1.452       .  S
C1654      C1658   1.451       .  S
C1655      N1662   1.157       .  T
C1656      N1663   1.157       .  T
C1657      N1661   1.157       .  T
C1658      N1664   1.157       .  T
C1659      N1668   1.157       .  T
C1660      N1666   1.157       .  T
C1669      C1670   1.410       .  A
C1669      C1674   1.413       .  A
C1669      C1687   1.450       .  S
C1670      C1671   1.411       .  A
C1670      C1675   1.498       .  S
C1671      C1672   1.410   1_545  A
C1671      C1676   1.451       .  S
C1672      C1673   1.416   1_565  A
C1672      C1688   1.451       .  S
C1673      C1674   1.416       .  A
C1674      C1677   1.450       .  S
C1675      C1678   1.409       .  A
C1675      C1682   1.410       .  A
C1676      N1693   1.157       .  T
C1677      N1695   1.157       .  T
C1678      C1679   1.413       .  A
C1678      C1683   1.450       .  S
C1679      C1680   1.419       .  A
C1679      C1685   1.451       .  S
C1680      C1681   1.417       .  A
C1681      C1682   1.411       .  A
C1681      C1684   1.451       .  S
C1682      C1686   1.451       .  S
C1683      N1690   1.157       .  T
C1684      N1691   1.157       .  T
C1685      N1689   1.157       .  T
C1686      N1692   1.157       .  T
C1687      N1696   1.157       .  T
C1688      N1694   1.157       .  T
C1697      C1698   1.411       .  A
C1697      C1702   1.411       .  A
C1697      C1715   1.450       .  S
C1698      C1699   1.410       .  A
C1698      C1703   1.495       .  S
C1699      C1700   1.409       .  A
C1699      C1704   1.451       .  S
C1700      C1701   1.413       .  A
C1700      C1716   1.450       .  S
C1701      C1702   1.414       .  A
C1702      C1705   1.451       .  S
C1703      C1706   1.409       .  A
C1703      C1710   1.409       .  A
C1704      N1721   1.157       .  T
C1705      N1723   1.157       .  T
C1706      C1707   1.412       .  A
C1706      C1711   1.451       .  S
C1707      C1708   1.419       .  A
C1707      C1713   1.452       .  S
C1708      C1709   1.417       .  A
C1709      C1710   1.410       .  A
C1709      C1712   1.450       .  S
C1710      C1714   1.452       .  S
C1711      N1718   1.157       .  T
C1712      N1719   1.157       .  T
C1713      N1717   1.158       .  T
C1714      N1720   1.157       .  T
C1715      N1724   1.157       .  T
C1716      N1722   1.157       .  T
C1725      C1726   1.412       .  A
C1725      C1730   1.415       .  A
C1725      C1743   1.449       .  S
C1726      C1727   1.412       .  A
C1726      C1731   1.501       .  S
C1727      C1728   1.410       .  A
C1727      C1732   1.451       .  S
C1728      C1729   1.412       .  A
C1728      C1744   1.451       .  S
C1729      C1730   1.412       .  A
C1730      C1733   1.449       .  S
C1731      C1734   1.412       .  A
C1731      C1738   1.408       .  A
C1732      N1749   1.157       .  T
C1733      N1751   1.157       .  T
C1734      C1735   1.416       .  A
C1734      C1739   1.450       .  S
C1735      C1736   1.416       .  A
C1735      C1741   1.449       .  S
C1736      C1737   1.420       .  A
C1737      C1738   1.412       .  A
C1737      C1740   1.451       .  S
C1738      C1742   1.451       .  S
C1739      N1746   1.157       .  T
C1740      N1747   1.157       .  T
C1741      N1745   1.157       .  T
C1742      N1748   1.157       .  T
C1743      N1752   1.157       .  T
C1744      N1750   1.157       .  T
C1753      C1754   1.413       .  A
C1753      C1758   1.410       .  A
C1753      C1771   1.451       .  S
C1754      C1755   1.413       .  A
C1754      C1759   1.499       .  S
C1755      C1756   1.411       .  A
C1755      C1760   1.451       .  S
C1756      C1757   1.414       .  A
C1756      C1772   1.451   1_655  S
C1757      C1758   1.412       .  A
C1758      C1761   1.451       .  S
C1759      C1762   1.413       .  A
C1759      C1766   1.412       .  A
C1760      N1777   1.157       .  T
C1761      N1779   1.157       .  T
C1762      C1763   1.412       .  A
C1762      C1767   1.451       .  S
C1763      C1764   1.413       .  A
C1763      C1769   1.449       .  S
C1764      C1765   1.416       .  A
C1765      C1766   1.409       .  A
C1765      C1768   1.452       .  S
C1766      C1770   1.452       .  S
C1767      N1774   1.157       .  T
C1768      N1775   1.157       .  T
C1769      N1773   1.157       .  T
C1770      N1776   1.157       .  T
C1771      N1780   1.157       .  T
C1772      N1778   1.157       .  T
C1781      C1782   1.412       .  A
C1781      C1786   1.408       .  A
C1781      C1799   1.450       .  S
C1782      C1783   1.410       .  A
C1782      C1787   1.489       .  S
C1783      C1784   1.407       .  A
C1783      C1788   1.450       .  S
C1784      C1785   1.411       .  A
C1784      C1800   1.451       .  S
C1785      C1786   1.409       .  A
C1786      C1789   1.451       .  S
C1787      C1790   1.408       .  A
C1787      C1794   1.410       .  A
C1788      N1805   1.157       .  T
C1789      N1807   1.157       .  T
C1790      C1791   1.407       .  A
C1790      C1795   1.452       .  S
C1791      C1792   1.415       .  A
C1791      C1797   1.451       .  S
C1792      C1793   1.412       .  A
C1793      C1794   1.411       .  A
C1793      C1796   1.449       .  S
C1794      C1798   1.450       .  S
C1795      N1802   1.157       .  T
C1796      N1803   1.157       .  T
C1797      N1801   1.157       .  T
C1798      N1804   1.157       .  T
C1799      N1808   1.157       .  T
C1800      N1806   1.157       .  T
C1809      C1810   1.409       .  A
C1809      C1814   1.407       .  A
C1809      C1827   1.451       .  S
C1810      C1811   1.409       .  A
C1810      C1815   1.487       .  S
C1811      C1812   1.408       .  A
C1811      C1816   1.451       .  S
C1812      C1813   1.413       .  A
C1812      C1828   1.451       .  S
C1813      C1814   1.412       .  A
C1814      C1817   1.451       .  S
C1815      C1818   1.409       .  A
C1815      C1822   1.408       .  A
C1816      N1833   1.157       .  T
C1817      N1835   1.157       .  T
C1818      C1819   1.407       .  A
C1818      C1823   1.452       .  S
C1819      C1820   1.416   1_655  A
C1819      C1825   1.452       .  S
C1820      C1821   1.414       .  A
C1821      C1822   1.407   1_455  A
C1821      C1824   1.451       .  S
C1822      C1826   1.450       .  S
C1823      N1830   1.157       .  T
C1824      N1831   1.157       .  T
C1825      N1829   1.157       .  T
C1826      N1832   1.157       .  T
C1827      N1836   1.157       .  T
C1828      N1834   1.157       .  T
C1837      C1838   1.411       .  A
C1837      C1842   1.408       .  A
C1837      C1855   1.452       .  S
C1838      C1839   1.413       .  A
C1838      C1843   1.501       .  S
C1839      C1840   1.415       .  A
C1839      C1844   1.452       .  S
C1840      C1841   1.418       .  A
C1840      C1856   1.449       .  S
C1841      C1842   1.416       .  A
C1842      C1845   1.448       .  S
C1843      C1846   1.412       .  A
C1843      C1850   1.412       .  A
C1844      N1861   1.157       .  T
C1845      N1863   1.155       .  T
C1846      C1847   1.411       .  A
C1846      C1851   1.450       .  S
C1847      C1848   1.419       .  A
C1847      C1853   1.452       .  S
C1848      C1849   1.421       .  A
C1849      C1850   1.408       .  A
C1849      C1852   1.453       .  S
C1850      C1854   1.453       .  S
C1851      N1858   1.157       .  T
C1852      N1859   1.158       .  T
C1853      N1857   1.158       .  T
C1854      N1860   1.157       .  T
C1855      N1864   1.157       .  T
C1856      N1862   1.157       .  T
C1865      C1866   1.411       .  A
C1865      C1870   1.408       .  A
C1865      C1883   1.452       .  S
C1866      C1867   1.408       .  A
C1866      C1871   1.492       .  S
C1867      C1868   1.410       .  A
C1867      C1872   1.449       .  S
C1868      C1869   1.413       .  A
C1868      C1884   1.450       .  S
C1869      C1870   1.413       .  A
C1870      C1873   1.451       .  S
C1871      C1874   1.407       .  A
C1871      C1878   1.413       .  A
C1872      N1889   1.157       .  T
C1873      N1891   1.157       .  T
C1874      C1875   1.409       .  A
C1874      C1879   1.450       .  S
C1875      C1876   1.415       .  A
C1875      C1881   1.450       .  S
C1876      C1877   1.411       .  A
C1877      C1878   1.410       .  A
C1877      C1880   1.451       .  S
C1878      C1882   1.451       .  S
C1879      N1886   1.157       .  T
C1880      N1887   1.157       .  T
C1881      N1885   1.157       .  T
C1882      N1888   1.157       .  T
C1883      N1892   1.157       .  T
C1884      N1890   1.157       .  T
C1893      C1894   1.407       .  A
C1893      C1898   1.405       .  A
C1893      C1911   1.454       .  S
C1894      C1895   1.411       .  A
C1894      C1899   1.495       .  S
C1895      C1896   1.413       .  A
C1895      C1900   1.451       .  S
C1896      C1897   1.420       .  A
C1896      C1912   1.450       .  S
C1897      C1898   1.425       .  A
C1898      C1901   1.453       .  S
C1899      C1902   1.413       .  A
C1899      C1906   1.411   1_545  A
C1900      N1917   1.157       .  T
C1901      N1919   1.157       .  T
C1902      C1903   1.411   1_545  A
C1902      C1907   1.451       .  S
C1903      C1904   1.413       .  A
C1903      C1909   1.451       .  S
C1904      C1905   1.414       .  A
C1905      C1906   1.405       .  A
C1905      C1908   1.452       .  S
C1906      C1910   1.452       .  S
C1907      N1914   1.157       .  T
C1908      N1915   1.157       .  T
C1909      N1913   1.157       .  T
C1910      N1916   1.157       .  T
C1911      N1920   1.157       .  T
C1912      N1918   1.157       .  T
C1921      C1922   1.411       .  A
C1921      C1926   1.412       .  A
C1921      C1939   1.449       .  S
C1922      C1923   1.414       .  A
C1922      C1927   1.501       .  S
C1923      C1924   1.413       .  A
C1923      C1928   1.450       .  S
C1924      C1925   1.411       .  A
C1924      C1940   1.451       .  S
C1925      C1926   1.411       .  A
C1926      C1929   1.450       .  S
C1927      C1930   1.410       .  A
C1927      C1934   1.412       .  A
C1928      N1945   1.157       .  T
C1929      N1947   1.157       .  T
C1930      C1931   1.410       .  A
C1930      C1935   1.451       .  S
C1931      C1932   1.415       .  A
C1931      C1937   1.451       .  S
C1932      C1933   1.415       .  A
C1933      C1934   1.416       .  A
C1933      C1936   1.450       .  S
C1934      C1938   1.449       .  S
C1935      N1942   1.157       .  T
C1936      N1943   1.157       .  T
C1937      N1941   1.157       .  T
C1938      N1944   1.157       .  T
C1939      N1948   1.157       .  T
C1940      N1946   1.157       .  T
C1949      C1950   1.412       .  A
C1949      C1954   1.414   1_545  A
C1949      C1967   1.449       .  S
C1950      C1951   1.412       .  A
C1950      C1955   1.499       .  S
C1951      C1952   1.410   1_545  A
C1951      C1956   1.451       .  S
C1952      C1953   1.413       .  A
C1952      C1968   1.451       .  S
C1953      C1954   1.412       .  A
C1954      C1957   1.450       .  S
C1955      C1958   1.413       .  A
C1955      C1962   1.412       .  A
C1956      N1973   1.157       .  T
C1957      N1975   1.157       .  T
C1958      C1959   1.413       .  A
C1958      C1963   1.449       .  S
C1959      C1960   1.411       .  A
C1959      C1965   1.450       .  S
C1960      C1961   1.413       .  A
C1961      C1962   1.409       .  A
C1961      C1964   1.451       .  S
C1962      C1966   1.451       .  S
C1963      N1970   1.157       .  T
C1964      N1971   1.157       .  T
C1965      N1969   1.157       .  T
C1966      N1972   1.157   1_545  T
C1967      N1976   1.157       .  T
C1968      N1974   1.157       .  T
C1977      C1978   1.410       .  A
C1977      C1982   1.412       .  A
C1977      C1995   1.450       .  S
C1978      C1979   1.412       .  A
C1978      C1983   1.498       .  S
C1979      C1980   1.412       .  A
C1979      C1984   1.451       .  S
C1980      C1981   1.413       .  A
C1980      C1996   1.450   1_545  S
C1981      C1982   1.415       .  A
C1982      C1985   1.450       .  S
C1983      C1986   1.412       .  A
C1983      C1990   1.411       .  A
C1984      N2001   1.157       .  T
C1985      N2003   1.157       .  T
C1986      C1987   1.414       .  A
C1986      C1991   1.449       .  S
C1987      C1988   1.412       .  A
C1987      C1993   1.449       .  S
C1988      C1989   1.411       .  A
C1989      C1990   1.409       .  A
C1989      C1992   1.450       .  S
C1990      C1994   1.451       .  S
C1991      N1998   1.157   1_545  T
C1992      N1999   1.157       .  T
C1993      N1997   1.157       .  T
C1994      N2000   1.157       .  T
C1995      N2004   1.157       .  T
C1996      N2002   1.157       .  T
C2005      C2006   1.410       .  A
C2005      C2010   1.408       .  A
C2005      C2023   1.450       .  S
C2006      C2007   1.413       .  A
C2006      C2011   1.496       .  S
C2007      C2008   1.412       .  A
C2007      C2012   1.450       .  S
C2008      C2009   1.411       .  A
C2008      C2024   1.450       .  S
C2009      C2010   1.412       .  A
C2010      C2013   1.451   1_545  S
C2011      C2014   1.409       .  A
C2011      C2018   1.412       .  A
C2012      N2029   1.157       .  T
C2013      N2031   1.157       .  T
C2014      C2015   1.409       .  A
C2014      C2019   1.451       .  S
C2015      C2016   1.415       .  A
C2015      C2021   1.451       .  S
C2016      C2017   1.412       .  A
C2017      C2018   1.413       .  A
C2017      C2020   1.450       .  S
C2018      C2022   1.450       .  S
C2019      N2026   1.157       .  T
C2020      N2027   1.157       .  T
C2021      N2025   1.157       .  T
C2022      N2028   1.157       .  T
C2023      N2032   1.157       .  T
C2024      N2030   1.157       .  T
C2033      C2034   1.412       .  A
C2033      C2038   1.412       .  A
C2033      C2051   1.451       .  S
C2034      C2035   1.410       .  A
C2034      C2039   1.499       .  S
C2035      C2036   1.413       .  A
C2035      C2040   1.450       .  S
C2036      C2037   1.415       .  A
C2036      C2052   1.450       .  S
C2037      C2038   1.415       .  A
C2038      C2041   1.451       .  S
C2039      C2042   1.412       .  A
C2039      C2046   1.410       .  A
C2040      N2057   1.157       .  T
C2041      N2059   1.157       .  T
C2042      C2043   1.412       .  A
C2042      C2047   1.451       .  S
C2043      C2044   1.416       .  A
C2043      C2049   1.452       .  S
C2044      C2045   1.415       .  A
C2045      C2046   1.411       .  A
C2045      C2048   1.450       .  S
C2046      C2050   1.450       .  S
C2047      N2054   1.157       .  T
C2048      N2055   1.157       .  T
C2049      N2053   1.157       .  T
C2050      N2056   1.157       .  T
C2051      N2060   1.157       .  T
C2052      N2058   1.157       .  T
C2061      C2062   1.408       .  A
C2061      C2066   1.416       .  A
C2061      C2079   1.452       .  S
C2062      C2063   1.410       .  A
C2062      C2067   1.505       .  S
C2063      C2064   1.412       .  A
C2063      C2068   1.452       .  S
C2064      C2065   1.423       .  A
C2064      C2080   1.450       .  S
C2065      C2066   1.430       .  A
C2066      C2069   1.451       .  S
C2067      C2070   1.413       .  A
C2067      C2074   1.412       .  A
C2068      N2085   1.157       .  T
C2069      N2087   1.157       .  T
C2070      C2071   1.413       .  A
C2070      C2075   1.451       .  S
C2071      C2072   1.419       .  A
C2071      C2077   1.452       .  S
C2072      C2073   1.419       .  A
C2073      C2074   1.411       .  A
C2073      C2076   1.451       .  S
C2074      C2078   1.451       .  S
C2075      N2082   1.157       .  T
C2076      N2083   1.157       .  T
C2077      N2081   1.158       .  T
C2078      N2084   1.157       .  T
C2079      N2088   1.157       .  T
C2080      N2086   1.157       .  T
