geometry optimzed in LAMMPS
_audit_creation_date              2020-11-30 
_audit_creation_method            'lammps2cif' 
_symmetry_space_group_name_H-M    'P1' 
_symmetry_Int_Tables_number       1 
_symmetry_cell_setting            triclinic 
loop_ 
_symmetry_equiv_pos_as_xyz 
  x,y,z 
_cell_length_a                    25.630823 
_cell_length_b                    26.178562490737878 
_cell_length_c                    26.254512781528067 
_cell_angle_alpha                 89.64382374322834 
_cell_angle_beta                  89.453237730491 
_cell_angle_gamma                 89.47318776426204 
loop_ 
_atom_site_label 
_atom_site_type_symbol 
_atom_site_fract_x 
_atom_site_fract_y 
_atom_site_fract_z 
_atom_site_charge 
C1          C  0.86779304  0.86548269  0.86311441    -0.03400
N2          N  0.76806839  0.93288664  0.41242129    -0.07000
N3          N  0.72873469  0.94346614  0.44417182    -0.59100
N4          N  0.82193802  0.96892002  0.30221271    -0.06700
N5          N  0.82687531  0.99876209  0.26242197    -0.61200
N6          N  0.78660474  0.93381229  0.29509600    -0.06300
N7          N  0.76664479  0.93911984  0.24959598    -0.59100
N8          N  0.80553358  0.96631815  0.41806842    -0.05900
N9          N  0.79263670  0.99973233  0.45394021    -0.61600
C10         C  0.74460237  0.98519475  0.47032880     0.95200
C11         C  0.79234344  0.97975342  0.22994322     0.95000
N12         N  0.97556670  0.93712930  0.30865422    -0.07200
N13         N  0.01299373  0.94870633  0.27550782    -0.59700
N14         N  0.92748615  0.95969029  0.42414854    -0.05300
N15         N  0.93614762  0.99333932  0.45937459    -0.60900
N16         N  0.96437025  0.92449859  0.42317181    -0.07200
N17         N  0.99939794  0.93310739  0.45783072    -0.60000
N18         N  0.93965257  0.97311838  0.30951961    -0.04900
N19         N  0.95176974  0.00998322  0.27669952    -0.61000
Mn20       Mn  0.87310251  0.96850732  0.36427512     1.18400
C21         C  0.99735855  0.99393894  0.25519753     0.97300
C22         C  0.98055673  0.97569711  0.47963392     0.97900
N23         N  0.77469341  0.81334505  0.29093971    -0.07200
N24         N  0.73622569  0.80030482  0.26015907    -0.63500
N25         N  0.80905151  0.77595619  0.40638722    -0.06000
N26         N  0.79911214  0.74078953  0.44064945    -0.64200
N27         N  0.77223403  0.81146654  0.40615708    -0.06700
N28         N  0.73627741  0.80145569  0.44058222    -0.63800
N29         N  0.81059077  0.77711401  0.29178306    -0.05600
N30         N  0.79694149  0.73895967  0.26173501    -0.64500
Mn31       Mn  0.77327769  0.87352988  0.35097283     1.10700
C32         C  0.75058172  0.75384947  0.24154918     0.98500
C33         C  0.75398250  0.75749730  0.46121961     0.98600
N34         N  0.97000644  0.80584732  0.41500572    -0.06700
N35         N  0.00589834  0.79289829  0.44883474    -0.62100
N36         N  0.93218718  0.78730013  0.29439099    -0.06100
N37         N  0.93548321  0.76615530  0.24945703    -0.58800
N38         N  0.96894443  0.82136094  0.29931206    -0.07400
N39         N  0.99847296  0.82370552  0.25843851    -0.61700
N40         N  0.93377618  0.77072414  0.41264798    -0.06400
N41         N  0.94440767  0.73331006  0.44571894    -0.58900
Mn42       Mn  0.97130809  0.87169612  0.36196631     1.20200
Mn43       Mn  0.87207277  0.77582101  0.35152562     1.10100
Cl44       Cl  0.87214608  0.87214452  0.35787404    -0.86800
C45         C  0.98963820  0.74767984  0.46833397     0.95500
C46         C  0.97724314  0.78890161  0.22777350     0.95300
N47         N  0.95886470  0.42932570  0.92335889    -0.07000
N48         N  0.99746500  0.45833959  0.93695916    -0.59100
N49         N  0.93209630  0.31334454  0.96524840    -0.06700
N50         N  0.94442601  0.28067459  0.00200356    -0.61200
N51         N  0.96901615  0.31459957  0.93030882    -0.06300
N52         N  0.00762422  0.28304745  0.94295188    -0.59100
N53         N  0.92239648  0.42815059  0.95895286    -0.05900
N54         N  0.93510092  0.45641707  0.99768959    -0.61600
C55         C  0.98157426  0.47444772  0.98292825     0.95200
C56         C  0.99161133  0.26160915  0.98765870     0.95000
N57         N  0.77852063  0.30176679  0.92525563    -0.07200
N58         N  0.75368614  0.25869825  0.93125601    -0.59700
N59         N  0.80055213  0.42343083  0.96208404    -0.05300
N60         N  0.78918657  0.46009636  0.99507650    -0.60900
N61         N  0.76307105  0.41906436  0.92864191    -0.07200
N62         N  0.72519061  0.45252424  0.93858325    -0.60000
N63         N  0.81367892  0.30672554  0.96076928    -0.04900
N64         N  0.81352860  0.26765538  0.99201546    -0.61000
Mn65       Mn  0.86654003  0.36843360  0.96298841     1.18400
C66         C  0.77627199  0.23804193  0.97286002     0.97300
C67         C  0.74206085  0.47826383  0.97998341     0.97900
N68         N  0.96334694  0.31177021  0.81288153    -0.07200
N69         N  0.99634294  0.27349418  0.81089483    -0.63500
N70         N  0.92800831  0.42466463  0.76697509    -0.06000
N71         N  0.94090718  0.45491759  0.72805100    -0.64200
N72         N  0.96341134  0.42751128  0.80278876    -0.06700
N73         N  0.00061546  0.45979379  0.78890978    -0.63800
N74         N  0.92701585  0.30774215  0.77824192    -0.05600
N75         N  0.93416319  0.26589508  0.75202607    -0.64500
Mn76       Mn  0.96484855  0.37137739  0.86686363     1.10700
C77         C  0.97711608  0.24511782  0.77341916     0.98500
C78         C  0.98627387  0.47713481  0.74218710     0.98600
N79         N  0.76712328  0.41846571  0.81063693    -0.06700
N80         N  0.73412663  0.45678625  0.80668827    -0.62100
N81         N  0.80414771  0.30437716  0.76938011    -0.06100
N82         N  0.79204699  0.27308818  0.73166389    -0.58800
N83         N  0.76865944  0.30167035  0.80576303    -0.07400
N84         N  0.73217005  0.26822279  0.79353933    -0.61700
N85         N  0.80442614  0.42170429  0.77605997    -0.06400
N86         N  0.79817281  0.46286574  0.74818423    -0.58900
Mn87       Mn  0.76718514  0.35969502  0.86784379     1.20200
Mn88       Mn  0.86594540  0.36468564  0.77049355     1.10100
Cl89       Cl  0.86609786  0.36640928  0.86683744    -0.86800
C90         C  0.75473843  0.48432107  0.76829676     0.95500
C91         C  0.74722313  0.25003920  0.74720305     0.95300
N92         N  0.41213888  0.75986299  0.93127347    -0.07000
N93         N  0.44386141  0.72079075  0.94162823    -0.59100
N94         N  0.30083451  0.81835514  0.96259377    -0.06700
N95         N  0.26058646  0.82171991  0.99340738    -0.61200
N96         N  0.29323845  0.78441316  0.92696143    -0.06300
N97         N  0.24717419  0.76393822  0.93270472    -0.59100
N98         N  0.41894178  0.79647881  0.96444246    -0.05900
N99         N  0.45543517  0.78346232  0.99759822    -0.61600
C100        C  0.47108923  0.73625341  0.98289411     0.95200
C101        C  0.22757547  0.78738735  0.97451773     0.95000
N102        N  0.31885919  0.96788271  0.93293500    -0.07200
N103        N  0.28688409  0.00630300  0.94484750    -0.59700
N104        N  0.43330066  0.91364835  0.95903453    -0.05300
N105        N  0.46560730  0.92333253  0.99585141    -0.60900
N106        N  0.43611608  0.94868310  0.92307773    -0.07200
N107        N  0.47053344  0.98299210  0.93408576    -0.60000
N108        N  0.31728063  0.93280632  0.96878333    -0.04900
N109        N  0.28487547  0.94659533  0.00590770    -0.61000
Mn110      Mn  0.36808852  0.86473121  0.96512083     1.18400
C111        C  0.26563682  0.99244236  0.99054277     0.97300
C112        C  0.48806276  0.96629010  0.97904393     0.97900
N113        N  0.29438874  0.77334617  0.80659595    -0.07200
N114        N  0.25983599  0.73870503  0.79243543    -0.63500
N115        N  0.41932390  0.80084483  0.77882855    -0.06000
N116        N  0.46237560  0.79307716  0.75267078    -0.64200
N117        N  0.41314150  0.76451166  0.81319180    -0.06700
N118        N  0.45124788  0.73082780  0.81076175    -0.63800
N119        N  0.30007789  0.80800418  0.77052408    -0.05600
N120        N  0.26988374  0.79722512  0.73124146    -0.64500
Mn121      Mn  0.35233683  0.76829235  0.86979538     1.10700
C122        C  0.24404607  0.75436524  0.74551266     0.98500
C123        C  0.48183832  0.74986033  0.77358266     0.98600
N124        N  0.43347720  0.95659216  0.80447510    -0.06700
N125        N  0.46737735  0.99200757  0.79004775    -0.62100
N126        N  0.30994806  0.92824085  0.78019007    -0.06100
N127        N  0.26815637  0.93831042  0.75361095    -0.58800
N128        N  0.31598528  0.96334968  0.81514289    -0.07400
N129        N  0.27946931  0.99842450  0.81301954    -0.61700
N130        N  0.42923328  0.92174977  0.76893776    -0.06400
N131        N  0.46014175  0.93313446  0.72960479    -0.58900
Mn132      Mn  0.37649841  0.96033226  0.86874234     1.20200
Mn133      Mn  0.36470861  0.86466191  0.77253197     1.10100
Cl134      Cl  0.36553981  0.86442277  0.86876021    -0.86800
C135        C  0.48458527  0.97664199  0.74355498     0.95500
C136        C  0.24975335  0.98163165  0.77522611     0.95300
C137        C  0.36938017  0.37113926  0.87289199    -0.03400
C138        C  0.37558985  0.87480581  0.37096346    -0.03400
C139        C  0.87310083  0.37090472  0.36599183    -0.03400
N140        N  0.21211026  0.06411778  0.68449774    -0.07000
N141        N  0.24005639  0.05726928  0.72553411    -0.59100
N142        N  0.18741870  0.02377684  0.56566259    -0.06700
N143        N  0.19950105  0.98846515  0.53141749    -0.61200
N144        N  0.22380456  0.05879398  0.56696662    -0.06300
N145        N  0.26121975  0.04797340  0.53320193    -0.59100
N146        N  0.17668312  0.02844471  0.68148623    -0.05900
N147        N  0.17936434  0.99658107  0.71979350    -0.61600
C148        C  0.21850260  0.01533856  0.74698497     0.95200
C149        C  0.24520966  0.00431296  0.51058709     0.95000
N150        N  0.02855000  0.06175437  0.56280426    -0.07200
N151        N  0.99191752  0.04972593  0.53105154    -0.59700
N152        N  0.05769066  0.02169759  0.67865082    -0.05300
N153        N  0.04593725  0.98504801  0.71181630    -0.60900
N154        N  0.02039580  0.05638563  0.67747645    -0.07200
N155        N  0.98230791  0.04380125  0.70958493    -0.60000
N156        N  0.06540351  0.02652795  0.56371129    -0.04900
N157        N  0.05505899  0.98937363  0.53251395    -0.61000
Mn158      Mn  0.12229326  0.02387460  0.62198882     1.18400
C159        C  0.00948458  0.00497189  0.51303966     0.97300
C160        C  0.99908788  0.99964663  0.73155533     0.97900
N161        N  0.21685848  0.17748637  0.56537513    -0.07200
N162        N  0.24914308  0.18152919  0.52663374    -0.63500
N163        N  0.18182962  0.22025084  0.68005543    -0.06000
N164        N  0.19302861  0.25835493  0.71127477    -0.64200
N165        N  0.21890080  0.18522076  0.68141853    -0.06700
N166        N  0.25608797  0.19925522  0.71321919    -0.63800
N167        N  0.17930019  0.21196301  0.56272898    -0.05600
N168        N  0.18494896  0.24003090  0.52153362    -0.64500
Mn169      Mn  0.22005909  0.12131327  0.62503918     1.10700
C170        C  0.22815712  0.21995661  0.49940901     0.98500
C171        C  0.23949642  0.24489968  0.73226944     0.98600
N172        N  0.02373747  0.17407151  0.67781400    -0.06700
N173        N  0.99154718  0.17635386  0.71661589    -0.62100
N174        N  0.05537321  0.21849514  0.56354200    -0.06100
N175        N  0.04128668  0.25668953  0.53293986    -0.58800
N176        N  0.02040378  0.18207400  0.56232390    -0.07400
N177        N  0.98224013  0.19479818  0.53067087    -0.61700
N178        N  0.05944896  0.20959214  0.68012544    -0.06400
N179        N  0.05265395  0.23681969  0.72130973    -0.58900
Mn180      Mn  0.02200651  0.11886708  0.61960085     1.20200
Mn181      Mn  0.11895277  0.21719528  0.62150745     1.10100
Cl182      Cl  0.12090770  0.12050546  0.62174334    -0.86800
C183        C  0.01061733  0.21503302  0.74351729     0.95500
C184        C  0.99568923  0.24145461  0.51207186     0.95300
N185        N  0.05669092  0.69162783  0.20242112    -0.07000
N186        N  0.05235170  0.73717014  0.22227608    -0.59100
N187        N  0.02300833  0.56953273  0.18508807    -0.06700
N188        N  0.98756825  0.53520163  0.19791512    -0.61200
N189        N  0.05855348  0.57325366  0.22064304    -0.06300
N190        N  0.04768416  0.54056277  0.25841968    -0.59100
N191        N  0.02040272  0.68512448  0.16822820    -0.05900
N192        N  0.99002967  0.72545083  0.16468120    -0.61600
C193        C  0.01056603  0.75758336  0.19852097     0.95200
C194        C  0.00315676  0.51674206  0.24357379     0.95000
N195        N  0.06673119  0.55873171  0.03220584    -0.07200
N196        N  0.05749442  0.52451676  0.99755656    -0.59700
N197        N  0.01507948  0.67345643  0.05217646    -0.05300
N198        N  0.97655794  0.70460922  0.03835974    -0.60900
N199        N  0.05197710  0.67301980  0.01728373    -0.07200
N200        N  0.03976034  0.70415795  0.97926605    -0.60000
N201        N  0.02972519  0.55919567  0.06722273    -0.04900
N202        N  0.99423924  0.52519939  0.05744018    -0.61000
Mn203      Mn  0.02058425  0.62146096  0.11875559     1.18400
C204        C  0.01269453  0.50424444  0.01435384     0.97300
C205        C  0.99262673  0.72394266  0.99276311     0.97900
N206        N  0.18374449  0.58417663  0.21534059    -0.07200
N207        N  0.19530643  0.55096060  0.25089880    -0.63500
N208        N  0.21436760  0.70029136  0.17724673    -0.06000
N209        N  0.25141389  0.73298452  0.19007824    -0.64200
N210        N  0.17838407  0.69848941  0.21335268    -0.06700
N211        N  0.19073044  0.72952047  0.25119249    -0.63800
N212        N  0.22048545  0.58532633  0.17985988    -0.05600
N213        N  0.25794757  0.55269407  0.19012999    -0.64500
Mn214      Mn  0.11865816  0.63656658  0.21499324     1.10700
C215        C  0.24132958  0.53228593  0.23432053     0.98500
C216        C  0.23615291  0.75163880  0.23623744     0.98600
N217        N  0.16910804  0.68470467  0.02171196    -0.06700
N218        N  0.16458843  0.72365175  0.99056436    -0.62100
N219        N  0.22573030  0.57563686  0.05870117    -0.06100
N220        N  0.26553113  0.54421404  0.04791632    -0.58800
N221        N  0.18793274  0.56834913  0.02607947    -0.07400
N222        N  0.20077730  0.53179703  0.99337022    -0.61700
N223        N  0.20387606  0.69328970  0.05686090    -0.06400
N224        N  0.22370977  0.73880923  0.05050638    -0.58900
Mn225      Mn  0.11954566  0.62051909  0.02313251     1.20200
Mn226      Mn  0.21822130  0.63888579  0.11752435     1.10100
Cl227      Cl  0.11957069  0.62873889  0.11893497    -0.86800
C228        C  0.19881546  0.75705055  0.00894293     0.95500
C229        C  0.24920170  0.51639574  0.00731299     0.95300
N230        N  0.67414049  0.05500401  0.01317447    -0.07000
N231        N  0.70459312  0.04351605  0.97361218    -0.59100
N232        N  0.56261549  0.02425443  0.06722297    -0.06700
N233        N  0.53526908  0.98425461  0.05527872    -0.61200
N234        N  0.55802426  0.06040598  0.03240912    -0.06300
N235        N  0.52757755  0.04602187  0.99591511    -0.59100
N236        N  0.67918823  0.02025125  0.04904109    -0.05900
N237        N  0.71359340  0.98484587  0.03507875    -0.61600
C238        C  0.72943966  0.99973475  0.98790554     0.95200
C239        C  0.51433406  0.99905770  0.01108802     0.95000
N240        N  0.57983408  0.05419717  0.22061334    -0.07200
N241        N  0.54802718  0.04320178  0.25934315    -0.59700
N242        N  0.69347333  0.02552793  0.16389898    -0.05300
N243        N  0.73374847  0.99456016  0.16262541    -0.60900
N244        N  0.69905941  0.06127702  0.19809021    -0.07200
N245        N  0.74400573  0.05571374  0.22067617    -0.60000
N246        N  0.57633315  0.01915796  0.18525602    -0.04900
N247        N  0.54287757  0.98336505  0.19947983    -0.61000
Mn248      Mn  0.62752031  0.02105776  0.11688836     1.18400
C249        C  0.52495108  0.99880653  0.24571434     0.97300
C250        C  0.76482930  0.01377974  0.19830765     0.97900
N251        N  0.55647720  0.18050302  0.02604487    -0.07200
N252        N  0.52090317  0.19371594  0.99182745    -0.63500
N253        N  0.68087582  0.20699341  0.05492647    -0.06000
N254        N  0.72478190  0.23127348  0.04793840    -0.64200
N255        N  0.67532122  0.17234226  0.01947710    -0.06700
N256        N  0.71459780  0.17241608  0.98735168    -0.63800
N257        N  0.56115055  0.21674714  0.06007447    -0.05600
N258        N  0.52925098  0.25547744  0.04917205    -0.64500
Mn259      Mn  0.61523520  0.11751579  0.02157469     1.10700
C260        C  0.50370701  0.24055954  0.00675494     0.98500
C261        C  0.74517272  0.20886883  0.00596950     0.98600
N262        N  0.69498889  0.18108794  0.20862903    -0.06700
N263        N  0.72964780  0.19490196  0.24314624    -0.62100
N264        N  0.56987429  0.20749763  0.17983033    -0.06100
N265        N  0.52642364  0.23328913  0.18693336    -0.58800
N266        N  0.57582342  0.17291377  0.21594238    -0.07400
N267        N  0.53709052  0.17491005  0.24890738    -0.61700
N268        N  0.68929924  0.21739522  0.17427760    -0.06400
N269        N  0.71955962  0.25671121  0.18522880    -0.58900
Mn270      Mn  0.63805525  0.11718090  0.21296425     1.20200
Mn271      Mn  0.62524931  0.21438764  0.11718754     1.10100
Cl272      Cl  0.62616419  0.11771944  0.11725777    -0.86800
C273        C  0.74544300  0.24200531  0.22785774     0.95500
C274        C  0.50639551  0.21204816  0.22964538     0.95300
C275        C  0.61899513  0.61819207  0.11264108    -0.03400
C276        C  0.11489519  0.62000577  0.61389605    -0.03400
N277        N  0.27354255  0.31299974  0.42049668    -0.07000
N278        N  0.23985543  0.27610218  0.42714983    -0.59100
N279        N  0.30623462  0.42809106  0.46154715    -0.06700
N280        N  0.29297715  0.45960508  0.49906382    -0.61200
N281        N  0.27053701  0.42937035  0.42594722    -0.06300
N282        N  0.23266355  0.46197913  0.43849982    -0.59100
N283        N  0.31029690  0.31091940  0.45508625    -0.05900
N284        N  0.30308610  0.27179147  0.48554086    -0.61600
C285        C  0.25961798  0.25040205  0.46708512     0.95200
C286        C  0.24706263  0.48111201  0.48419857     0.95000
N287        N  0.46714891  0.42431356  0.41927207    -0.07200
N288        N  0.50034672  0.46174147  0.42442892    -0.59700
N289        N  0.43334317  0.31017870  0.46341129    -0.05300
N290        N  0.44633360  0.27970505  0.50203064    -0.60900
N291        N  0.46923631  0.30781011  0.42741372    -0.07200
N292        N  0.50695688  0.27554030  0.44074150    -0.60000
N293        N  0.42962599  0.42727258  0.45369934    -0.04900
N294        N  0.43597495  0.46734894  0.48258725    -0.61000
Mn295      Mn  0.36983887  0.36915240  0.46018411     1.18400
C296        C  0.47967194  0.48859083  0.46331430     0.97300
C297        C  0.49231300  0.25775500  0.48736075     0.97900
N298        N  0.27844011  0.43013610  0.30663645    -0.07200
N299        N  0.24700393  0.46915908  0.30057721    -0.63500
N300        N  0.30669614  0.31415090  0.26621566    -0.06000
N301        N  0.29413515  0.28300329  0.22890532    -0.64200
N302        N  0.26945889  0.31543010  0.30096567    -0.06700
N303        N  0.23053129  0.28546779  0.28751581    -0.63800
N304        N  0.31493384  0.42931343  0.27108510    -0.05600
N305        N  0.30929765  0.46787009  0.23955870    -0.64500
Mn306      Mn  0.27147568  0.37205805  0.36358747     1.10700
C307        C  0.26717949  0.49190153  0.25909632     0.98500
C308        C  0.24660031  0.26504797  0.24254773     0.98600
N309        N  0.46222015  0.30408322  0.30804097    -0.06700
N310        N  0.49137443  0.26306357  0.30289713    -0.62100
N311        N  0.43754969  0.42398573  0.26568050    -0.06100
N312        N  0.45022941  0.45820645  0.23021971    -0.58800
N313        N  0.47398855  0.42126862  0.30048474    -0.07400
N314        N  0.51228310  0.45331702  0.28918114    -0.61700
N315        N  0.42753743  0.30685217  0.27161039    -0.06400
N316        N  0.43272961  0.26820358  0.24038327    -0.58900
Mn317      Mn  0.46982126  0.36402211  0.36366309     1.20200
Mn318      Mn  0.37190665  0.36876848  0.26698360     1.10100
Cl319      Cl  0.37074772  0.36856268  0.36368624    -0.86800
C320        C  0.47215996  0.24102816  0.26090393     0.95500
C321        C  0.49679715  0.47675117  0.24555908     0.95300
N322        N  0.52652538  0.67357823  0.68039313    -0.07000
N323        N  0.49642726  0.67779946  0.72076907    -0.59100
N324        N  0.55604316  0.71884811  0.56384529    -0.06700
N325        N  0.54603165  0.75536497  0.53012312    -0.61200
N326        N  0.51970297  0.68376750  0.56277065    -0.06300
N327        N  0.48447142  0.69571585  0.52776854    -0.59100
N328        N  0.56211698  0.70932685  0.68005155    -0.05900
N329        N  0.55664086  0.73917519  0.71963848    -0.61600
C330        C  0.51604753  0.71854627  0.74484989     0.95200
C331        C  0.50145845  0.74051605  0.50734610     0.95000
N332        N  0.71418861  0.67885846  0.55896854    -0.07200
N333        N  0.74714865  0.68758452  0.52159937    -0.59700
N334        N  0.68279664  0.71408093  0.67715999    -0.05300
N335        N  0.69381939  0.74854764  0.71207986    -0.60900
N336        N  0.71993559  0.67928279  0.67460224    -0.07200
N337        N  0.75725810  0.68970120  0.70748266    -0.60000
N338        N  0.67807330  0.71480329  0.56111355    -0.04900
N339        N  0.68526951  0.74901198  0.52510340    -0.61000
Mn340      Mn  0.61946653  0.71587493  0.62051068     1.18400
C341        C  0.72818713  0.73106517  0.50119077     0.97300
C342        C  0.74029155  0.73282167  0.73115460     0.97900
N343        N  0.52309210  0.56434175  0.55846464    -0.07200
N344        N  0.49025318  0.55924724  0.52083810    -0.63500
N345        N  0.55495975  0.51909973  0.67339774    -0.06000
N346        N  0.54294607  0.48116291  0.70510183    -0.64200
N347        N  0.51834924  0.55450284  0.67454715    -0.06700
N348        N  0.48065059  0.54115763  0.70682354    -0.63800
N349        N  0.56016870  0.52938263  0.55624227    -0.05600
N350        N  0.55401716  0.50020802  0.51639233    -0.64500
Mn351      Mn  0.51995656  0.61931173  0.61912347     1.10700
C352        C  0.51082535  0.51985964  0.49455079     0.98500
C353        C  0.49639890  0.49531736  0.72613067     0.98600
N354        N  0.71404753  0.56108476  0.67295978    -0.06700
N355        N  0.74507964  0.55580636  0.71200528    -0.62100
N356        N  0.68260589  0.52222150  0.55740415    -0.06100
N357        N  0.69529638  0.48506374  0.52535458    -0.58800
N358        N  0.71864307  0.55767142  0.55677162    -0.07400
N359        N  0.75637843  0.54515992  0.52414335    -0.61700
N360        N  0.67702768  0.52669812  0.67415333    -0.06400
N361        N  0.68161030  0.49754464  0.71459783    -0.58900
Mn362      Mn  0.71840414  0.61902706  0.61532901     1.20200
Mn363      Mn  0.61878910  0.52252083  0.61524708     1.10100
Cl364      Cl  0.61916528  0.61909538  0.61706315    -0.86800
C365        C  0.72372327  0.51671441  0.73782622     0.95500
C366        C  0.74133729  0.49984053  0.50433702     0.95300
C367        C  0.61890493  0.11318047  0.61545720    -0.03400
C368        C  0.12363248  0.12397250  0.11534578    -0.03400
C369        C  0.24002411  0.20233577  0.17116040    -0.22200
C370        C  0.21518607  0.23050223  0.20985487    -0.10200
C371        C  0.16065753  0.22686059  0.21476557     0.28600
C372        C  0.13244182  0.19468060  0.18260600    -0.22200
C373        C  0.15758936  0.16228893  0.14662909    -0.10200
C374        C  0.21221036  0.16916863  0.13982571     0.28600
F375        F  0.23931394  0.14671970  0.10134766    -0.20700
H376        H  0.28164915  0.20599716  0.16489994     0.17000
H377        H  0.09044854  0.19324628  0.18735720     0.17000
F378        F  0.13427301  0.25489980  0.25006542    -0.20700
C379        C  0.59541446  0.15867754  0.52839672    -0.22200
C380        C  0.58616342  0.15209782  0.58148534    -0.10200
C381        C  0.54827052  0.18564985  0.60336420     0.28600
C382        C  0.51720441  0.21841668  0.57286426    -0.22200
C383        C  0.52494540  0.22210485  0.51979141    -0.10200
C384        C  0.56576906  0.19271908  0.49837279     0.28600
F385        F  0.57738096  0.19666958  0.44796760    -0.20700
H386        H  0.62695801  0.13864855  0.50920016     0.17000
H387        H  0.48746329  0.24187041  0.59120682     0.17000
F388        F  0.54013698  0.18582965  0.65452105    -0.20700
C389        C  0.22370668  0.52286198  0.56867156    -0.22200
C390        C  0.21390324  0.51674610  0.51640432    -0.10200
C391        C  0.17069435  0.54329028  0.49613009     0.28600
C392        C  0.13929190  0.57543531  0.52685177    -0.22200
C393        C  0.15002495  0.58386209  0.57913088    -0.10200
C394        C  0.19196165  0.55461091  0.59964406     0.28600
F395        F  0.20304408  0.55698179  0.64995471    -0.20700
H396        H  0.25570072  0.50213217  0.58611508     0.17000
H397        H  0.10561402  0.59272397  0.50904598     0.17000
F398        F  0.15836143  0.53827726  0.44626498    -0.20700
C399        C  0.51693393  0.56541315  0.21181222    -0.22200
C400        C  0.52970454  0.51318359  0.21509506    -0.10200
C401        C  0.57471643  0.49601593  0.18928389     0.28600
C402        C  0.60394349  0.52937725  0.15812321    -0.22200
C403        C  0.58940928  0.58145137  0.15114829    -0.10200
C404        C  0.54729191  0.59937232  0.18203988     0.28600
F405        F  0.53372012  0.64960024  0.18159379    -0.20700
H406        H  0.48344937  0.58011664  0.23269635     0.17000
H407        H  0.63832600  0.51373110  0.13965526     0.17000
F408        F  0.59001091  0.44639093  0.19332815    -0.20700
C409        C  0.78749077  0.35135434  0.31466788    -0.22200
C410        C  0.83992449  0.33867803  0.32701369    -0.10200
C411        C  0.86236999  0.29726236  0.29934073     0.28600
C412        C  0.83176208  0.26572740  0.26802912    -0.22200
C413        C  0.77877721  0.27670335  0.25933138    -0.10200
C414        C  0.75763496  0.32110361  0.28164231     0.28600
F415        F  0.70734067  0.33470872  0.27250555    -0.20700
H416        H  0.76898199  0.38514148  0.33023954     0.17000
H417        H  0.84981178  0.23285539  0.24996605     0.17000
F418        F  0.91388758  0.28595870  0.30390450    -0.20700
C419        C  0.88679526  0.44414714  0.30092519    -0.22200
C420        C  0.90989382  0.40529575  0.33131041    -0.10200
C421        C  0.96534806  0.40116967  0.32790562     0.28600
C422        C  0.99539869  0.43816095  0.30133920    -0.22200
C423        C  0.97171426  0.47858060  0.27430323    -0.10200
C424        C  0.91671855  0.48022444  0.27369764     0.28600
F425        F  0.89142982  0.51805621  0.24804835    -0.20700
H426        H  0.84472270  0.44814128  0.30019107     0.17000
H427        H  0.03746948  0.43405214  0.30039875     0.17000
F428        F  0.99119813  0.36040701  0.34773789    -0.20700
C429        C  0.89360517  0.28331915  0.41277012    -0.22200
C430        C  0.90389603  0.33610011  0.40535867    -0.10200
C431        C  0.94061796  0.35755132  0.43923376     0.28600
C432        C  0.97033295  0.32678325  0.47267514    -0.22200
C433        C  0.96266609  0.27376472  0.47660903    -0.10200
C434        C  0.92245607  0.25278709  0.44725584     0.28600
F435        F  0.91099760  0.20241699  0.45142231    -0.20700
H436        H  0.86246989  0.26499394  0.39263591     0.17000
H437        H  0.99930291  0.34486599  0.49609155     0.17000
F438        F  0.94943037  0.40855542  0.43896324    -0.20700
C439        C  0.84921022  0.45735024  0.41133805    -0.22200
C440        C  0.83720164  0.40559771  0.40109772    -0.10200
C441        C  0.79387246  0.38516989  0.42831347     0.28600
C442        C  0.76219304  0.41609551  0.46006334    -0.22200
C443        C  0.77389005  0.46780093  0.46847478    -0.10200
C444        C  0.81843327  0.48767793  0.44407619     0.28600
F445        F  0.83300855  0.53663706  0.45217214    -0.20700
H446        H  0.88377770  0.47485364  0.39548399     0.17000
H447        H  0.72898783  0.39899002  0.47918796     0.17000
F448        F  0.78164140  0.33505138  0.42404791    -0.20700
C449        C  0.26364209  0.78477314  0.32317042    -0.22200
C450        C  0.26891037  0.78580710  0.26965947    -0.10200
C451        C  0.30645905  0.81914177  0.24895392     0.28600
C452        C  0.33829838  0.84904860  0.28058335    -0.22200
C453        C  0.33663975  0.84518487  0.33470691    -0.10200
C454        C  0.29649827  0.81359577  0.35498593     0.28600
F455        F  0.28979676  0.80918319  0.40614021    -0.20700
H456        H  0.23472563  0.76029892  0.34080205     0.17000
H457        H  0.36425936  0.87517112  0.26140523     0.17000
F458        F  0.31201072  0.82372538  0.19767489    -0.20700
C459        C  0.41849653  0.96299109  0.34351093    -0.22200
C460        C  0.41475553  0.90904722  0.33858843    -0.10200
C461        C  0.45152147  0.88585217  0.30478458     0.28600
C462        C  0.48604690  0.91512741  0.27470314    -0.22200
C463        C  0.48757312  0.96861444  0.27841054    -0.10200
C464        C  0.45371455  0.99211967  0.31384146     0.28600
F465        F  0.45383861  0.04364443  0.31932807    -0.20700
H466        H  0.39535056  0.98367055  0.37108883     0.17000
H467        H  0.51245836  0.89555218  0.24878417     0.17000
F468        F  0.45369410  0.83425989  0.30018042    -0.20700
C469        C  0.30697880  0.94676572  0.38949210    -0.22200
C470        C  0.34043835  0.90788255  0.40888273    -0.10200
C471        C  0.33746765  0.89974700  0.46286205     0.28600
C472        C  0.30764162  0.93196831  0.49467287    -0.22200
C473        C  0.27792863  0.97243014  0.47505913    -0.10200
C474        C  0.27720556  0.97910125  0.42185575     0.28600
F475        F  0.24735213  0.01668145  0.40101605    -0.20700
H476        H  0.30512283  0.95311525  0.34875490     0.17000
H477        H  0.30692098  0.92443596  0.53530323     0.17000
F478        F  0.36009146  0.85899645  0.48612553    -0.20700
C479        C  0.40701791  0.78323298  0.40202344    -0.22200
C480        C  0.41189095  0.83722368  0.40223927    -0.10200
C481        C  0.45166801  0.85711544  0.43376499     0.28600
C482        C  0.48116142  0.82531529  0.46607185    -0.22200
C483        C  0.47252559  0.77247827  0.46889972    -0.10200
C484        C  0.43577853  0.75163182  0.43555266     0.28600
F485        F  0.42779717  0.70046272  0.43491692    -0.20700
H486        H  0.38049149  0.76458570  0.37673586     0.17000
H487        H  0.50960982  0.84268118  0.49060950     0.17000
F488        F  0.46002641  0.90816166  0.43592718    -0.20700
C489        C  0.28015298  0.35037154  0.82677942    -0.22200
C490        C  0.33345054  0.33878326  0.83627683    -0.10200
C491        C  0.35527994  0.29833536  0.80661880     0.28600
C492        C  0.32451776  0.26808583  0.77455093    -0.22200
C493        C  0.27107557  0.27803492  0.76767269    -0.10200
C494        C  0.24956464  0.32057666  0.79359214     0.28600
F495        F  0.19873592  0.33370829  0.78696435    -0.20700
H496        H  0.26172609  0.38346332  0.84375119     0.17000
H497        H  0.34316418  0.23687769  0.75426197     0.17000
F498        F  0.40675964  0.28652833  0.80964148    -0.20700
C499        C  0.32955254  0.49226889  0.95521829    -0.22200
C500        C  0.28170687  0.47819643  0.97731483    -0.10200
C501        C  0.26401788  0.42833919  0.96767291     0.28600
C502        C  0.29293231  0.39433363  0.93614185    -0.22200
C503        C  0.33848622  0.40973186  0.90926995    -0.10200
C504        C  0.35759945  0.45914000  0.92230076     0.28600
F505        F  0.40439470  0.47588307  0.90477347    -0.20700
H506        H  0.34502538  0.52982935  0.96264240     0.17000
H507        H  0.27864925  0.35585885  0.93167180     0.17000
F508        F  0.21892912  0.41200828  0.98952357    -0.20700
C509        C  0.44286323  0.35701016  0.93916714    -0.22200
C510        C  0.40165769  0.33586893  0.91066572    -0.10200
C511        C  0.39069731  0.28343063  0.92092703     0.28600
C512        C  0.42413490  0.25300458  0.95128009    -0.22200
C513        C  0.46707703  0.27395047  0.97630048    -0.10200
C514        C  0.47493437  0.32689338  0.97109720     0.28600
F515        F  0.51522929  0.34944109  0.99512122    -0.20700
H516        H  0.45185132  0.39708534  0.93515550     0.17000
H517        H  0.41547965  0.21286260  0.95637537     0.17000
F518        F  0.34663930  0.26119505  0.90394706    -0.20700
C519        C  0.38215175  0.44235917  0.80575734    -0.22200
C520        C  0.40492254  0.40173296  0.83401067    -0.10200
C521        C  0.45811371  0.39006429  0.82224585     0.28600
C522        C  0.48706912  0.42030779  0.78748487    -0.22200
C523        C  0.46473641  0.46289813  0.76264355    -0.10200
C524        C  0.41144196  0.47307002  0.77202450     0.28600
F525        F  0.38700017  0.51250519  0.74809356    -0.20700
H526        H  0.34119324  0.45151330  0.81116257     0.17000
H527        H  0.52745458  0.41015577  0.77995331     0.17000
F528        F  0.48235189  0.34822840  0.84186110    -0.20700
C529        C  0.20194868  0.66829805  0.63545854    -0.22200
C530        C  0.14868188  0.65812535  0.64648732    -0.10200
C531        C  0.12614242  0.68660024  0.68729157     0.28600
C532        C  0.15706911  0.71665225  0.71975640    -0.22200
C533        C  0.21068553  0.72330058  0.71038234    -0.10200
C534        C  0.23217838  0.70025160  0.66655605     0.28600
F535        F  0.28306868  0.70782537  0.65418468    -0.20700
H536        H  0.22079916  0.65192899  0.60230987     0.17000
H537        H  0.13881024  0.73528670  0.75213426     0.17000
F538        F  0.07434076  0.68314260  0.69772062    -0.20700
C539        C  0.22755905  0.02114679  0.07489512    -0.22200
C540        C  0.22792505  0.02411099  0.02138512    -0.10200
C541        C  0.19134910  0.05671398  0.99808263     0.28600
C542        C  0.15593988  0.08587867  0.02747495    -0.22200
C543        C  0.15817208  0.08693385  0.08150793    -0.10200
C544        C  0.19381100  0.05202726  0.10448407     0.28600
F545        F  0.19772297  0.04915331  0.15592516    -0.20700
H546        H  0.25473886  0.99585544  0.09412171     0.17000
H547        H  0.12711928  0.10767790  0.00684871     0.17000
F548        F  0.18882588  0.05958159  0.94653879    -0.20700
C549        C  0.56182253  0.71769968  0.01524977    -0.22200
C550        C  0.50910338  0.70405668  0.01213245    -0.10200
C551        C  0.49251407  0.66076910  0.03931793     0.28600
C552        C  0.52712794  0.63344325  0.07093127    -0.22200
C553        C  0.57974643  0.64858593  0.07734610    -0.10200
C554        C  0.59701646  0.68938726  0.04558151     0.28600
F555        F  0.64802780  0.70282354  0.04457811    -0.20700
H556        H  0.57599443  0.75022177  0.99366483     0.17000
H557        H  0.51216885  0.59967403  0.08959945     0.17000
F558        F  0.44219177  0.64548134  0.03632263    -0.20700
C559        C  0.57285687  0.00568883  0.71071679    -0.22200
C560        C  0.51817757  0.00864835  0.70885013    -0.10200
C561        C  0.49579518  0.04332549  0.67415331     0.28600
C562        C  0.52719411  0.07507175  0.64308123    -0.22200
C563        C  0.58250434  0.07555541  0.64717353    -0.10200
C564        C  0.60443733  0.03784893  0.68012295     0.28600
F565        F  0.65698236  0.03265730  0.68377628    -0.20700
H566        H  0.59123037  0.97875035  0.73621373     0.17000
H567        H  0.50729114  0.09862325  0.61597392     0.17000
F568        F  0.44308092  0.04698477  0.67049023    -0.20700
C569        C  0.71911489  0.21586144  0.66127554    -0.22200
C570        C  0.71530030  0.21430253  0.71478351    -0.10200
C571        C  0.67940335  0.17963407  0.73633658     0.28600
C572        C  0.64855844  0.14792812  0.70540977    -0.22200
C573        C  0.65283571  0.14823799  0.65135558    -0.10200
C574        C  0.68826002  0.18438660  0.63024530     0.30200
F575        F  0.69407328  0.18875948  0.57900214    -0.20700
H576        H  0.74567120  0.24237060  0.64305807     0.17000
H577        H  0.62081643  0.12374675  0.72478928     0.17000
F578        F  0.67444608  0.17564930  0.78771706    -0.20700
C579        C  0.03245207  0.16249808  0.08808768    -0.22200
C580        C  0.08747927  0.15979873  0.08204632    -0.10200
C581        C  0.10973757  0.19440192  0.04611291     0.28600
C582        C  0.07851553  0.22571773  0.01491007    -0.22200
C583        C  0.02398075  0.22616015  0.01975325    -0.10200
C584        C  0.00132725  0.19449490  0.05727509     0.28600
F585        F  0.94877516  0.19406306  0.06417230    -0.20700
H586        H  0.01255054  0.14083427  0.11731821     0.17000
H587        H  0.09738157  0.25068216  0.98746479     0.17000
F588        F  0.16225889  0.19738610  0.04021526    -0.20700
C589        C  0.73529739  0.55875675  0.03242208    -0.22200
C590        C  0.71080953  0.51753309  0.00866029    -0.10200
C591        C  0.65642210  0.51351323  0.01392449     0.28600
C592        C  0.62820522  0.54729315  0.04543133    -0.22200
C593        C  0.65290417  0.58618063  0.07358555    -0.10200
C594        C  0.70678466  0.59378250  0.06267600     0.28600
F595        F  0.73216835  0.63576712  0.07889293    -0.20700
H596        H  0.77676906  0.56443516  0.02681046     0.17000
H597        H  0.58665988  0.54138222  0.04985538     0.17000
F598        F  0.63063101  0.47514885  0.99080388    -0.20700
C599        C  0.04328898  0.55094346  0.62675072    -0.22200
C600        C  0.08255758  0.58153597  0.64861507    -0.10200
C601        C  0.09318705  0.57119912  0.70095931     0.28600
C602        C  0.06156737  0.53818751  0.73032079    -0.22200
C603        C  0.01918859  0.51227407  0.70924124    -0.10200
C604        C  0.01110776  0.51848721  0.65646893     0.28600
F605        F  0.97253805  0.49264913  0.63309112    -0.20700
H606        H  0.03597390  0.55381081  0.58628321     0.17000
H607        H  0.07093050  0.53245322  0.77009979     0.17000
F608        F  0.13587348  0.59003682  0.72412399    -0.20700
C609        C  0.64041984  0.70708246  0.15453616    -0.22200
C610        C  0.65239990  0.65449476  0.14746994    -0.10200
C611        C  0.69495813  0.63503789  0.17627069     0.28600
C612        C  0.72693201  0.66741696  0.20514417    -0.22200
C613        C  0.71648243  0.72015197  0.20926569    -0.10200
C614        C  0.67192825  0.73926113  0.18415536     0.28600
F615        F  0.65857135  0.78938352  0.18793743    -0.20700
H616        H  0.60603227  0.72402063  0.13774344     0.17000
H617        H  0.75984232  0.65075508  0.22501316     0.17000
F618        F  0.70723820  0.58453884  0.17501314    -0.20700
C619        C  0.10012832  0.08594391  0.20582582    -0.22200
C620        C  0.09139501  0.08802871  0.15241862    -0.10200
C621        C  0.05415420  0.05323690  0.13344568     0.28600
C622        C  0.02312789  0.02337963  0.16669043    -0.22200
C623        C  0.02987156  0.02520801  0.21966665    -0.10200
C624        C  0.06961993  0.05580275  0.23869002     0.28600
F625        F  0.07931475  0.05634969  0.28943873    -0.20700
H626        H  0.13150861  0.10657204  0.22314102     0.17000
H627        H  0.99390669  0.99855128  0.15094689     0.17000
F628        F  0.04673860  0.04904130  0.08253753    -0.20700
C629        C  0.10391839  0.68684334  0.54157257    -0.22200
C630        C  0.07945476  0.65624080  0.57950595    -0.10200
C631        C  0.02408316  0.66155964  0.58320839     0.28600
C632        C  0.99534496  0.68956117  0.54639268    -0.22200
C633        C  0.02025795  0.71666735  0.50682728    -0.10200
C634        C  0.07525618  0.71593053  0.50589438     0.28600
F635        F  0.10170315  0.74192403  0.46911788    -0.20700
H636        H  0.14604622  0.68647397  0.53810977     0.17000
H637        H  0.95325578  0.69160521  0.55003267     0.17000
F638        F  0.99705860  0.64284419  0.62367559    -0.20700
C639        C  0.73731023  0.04109378  0.54844543    -0.22200
C640        C  0.71255979  0.01401228  0.50953844    -0.10200
C641        C  0.65765068  0.01598954  0.50834386     0.28600
C642        C  0.62896698  0.04619781  0.54341431    -0.22200
C643        C  0.65363204  0.07676625  0.58053701    -0.10200
C644        C  0.70875746  0.07059397  0.58412961     0.28600
F645        F  0.73589786  0.09054692  0.62318570    -0.20700
H646        H  0.77913895  0.03871962  0.55188887     0.17000
H647        H  0.58704367  0.04745225  0.54022505     0.17000
F648        F  0.63147183  0.99053126  0.47182509    -0.20700
C649        C  0.79684663  0.93606243  0.87342165    -0.22200
C650        C  0.83493007  0.90419399  0.89667592    -0.10200
C651        C  0.84283214  0.91218792  0.94969319     0.28600
C652        C  0.80828561  0.94274291  0.97848836    -0.22200
C653        C  0.76726297  0.96990771  0.95558245    -0.10200
C654        C  0.76296845  0.96754592  0.90226352     0.28600
F655        F  0.72445316  0.99372698  0.87809587    -0.20700
H656        H  0.79154210  0.93457277  0.83258822     0.17000
H657        H  0.81447973  0.94613186  0.01909149     0.17000
F658        F  0.88522869  0.89323851  0.97412722    -0.20700
C659        C  0.94110725  0.93159539  0.84820500    -0.22200
C660        C  0.90182700  0.90057377  0.82695354    -0.10200
C661        C  0.89319498  0.90695952  0.77366506     0.28600
C662        C  0.92510604  0.93886177  0.74365856    -0.22200
C663        C  0.96590120  0.96652391  0.76492427    -0.10200
C664        C  0.97346250  0.96287298  0.81772461     0.28600
F665        F  0.01173267  0.99007799  0.84003906    -0.20700
H666        H  0.94765227  0.93054805  0.88888706     0.17000
H667        H  0.91750041  0.94233267  0.70324826     0.17000
F668        F  0.85238423  0.88520024  0.74990935    -0.20700
C669        C  0.77749880  0.82696657  0.83541446    -0.22200
C670        C  0.83274707  0.82801248  0.83175047    -0.10200
C671        C  0.85635421  0.79156579  0.79856408     0.28600
C672        C  0.82623774  0.75967755  0.76776858    -0.22200
C673        C  0.77155273  0.76279995  0.76831542    -0.10200
C674        C  0.74750399  0.79626684  0.80325938     0.28600
F675        F  0.69468833  0.79897802  0.80693102    -0.20700
H676        H  0.75646509  0.84959843  0.86308018     0.17000
H677        H  0.84602546  0.73382586  0.74180646     0.17000
F678        F  0.90903406  0.78828562  0.79395148    -0.20700
C679        C  0.95620309  0.82155290  0.88981295    -0.22200
C680        C  0.90174673  0.82849183  0.89704675    -0.10200
C681        C  0.87767488  0.79725218  0.93486302     0.28600
C682        C  0.90730300  0.76481853  0.96655124    -0.22200
C683        C  0.96156336  0.75989879  0.96007925    -0.10200
C684        C  0.98548597  0.78818862  0.92068311     0.28600
F685        F  0.03759107  0.78386048  0.91181203    -0.20700
H686        H  0.97683206  0.84056804  0.85921848     0.17000
H687        H  0.88743241  0.74268876  0.99570275     0.17000
F688        F  0.82521425  0.79924231  0.94230909    -0.20700
loop_ 
_geom_bond_atom_site_label_1 
_geom_bond_atom_site_label_2 
_geom_bond_distance 
_geom_bond_site_symmetry_2 
_ccdc_geom_bond_type 
C1          C650   1.579       .  S
C1          C660   1.579       .  S
C1          C670   1.577       .  S
C1          C680   1.574       .  S
N2            N3   1.330       .  A
N2            N8   1.315       .  A
N2          Mn31   2.249       .  S
N3           C10   1.361       .  A
N4            N6   1.312       .  A
N4            N5   1.306       .  A
N4          Mn20   2.101       .  S
N5           C11   1.336       .  A
N6            N7   1.310       .  A
N6          Mn31   2.175       .  S
N7           C11   1.353       .  A
N8            N9   1.327       .  A
N8          Mn20   2.225       .  S
N9           C10   1.357       .  A
C10         C640   1.512   1_565  S
C11         C250   1.404   1_565  S
N12          N18   1.311       .  A
N12          N13   1.325   1_655  A
N12         Mn42   2.208       .  S
N13          C21   1.354   1_455  A
N14          N15   1.303       .  A
N14          N16   1.314       .  A
N14         Mn20   2.121       .  S
N15          C22   1.338       .  A
N16          N17   1.306       .  A
N16         Mn42   2.131       .  S
N17          C22   1.340       .  A
N18          N19   1.327   1_565  A
N18         Mn20   2.224       .  S
N19          C21   1.357   1_545  A
Mn20        Cl44   2.530       .  S
C21         C623   1.491   1_665  S
C22         C159   1.392   1_665  S
N23          N24   1.329       .  A
N23          N29   1.316       .  A
N23         Mn31   2.235       .  S
N24          C32   1.360       .  A
N25          N27   1.319       .  A
N25          N26   1.308       .  A
N25         Mn43   2.154       .  S
N26          C33   1.343       .  A
N27          N28   1.312       .  A
N27         Mn31   2.170       .  S
N28          C33   1.346       .  A
N29          N30   1.328       .  A
N29         Mn43   2.234       .  S
N30          C32   1.359       .  A
Mn31        Cl44   2.542       .  S
C32         C613   1.516       .  S
C33         C341   1.415       .  S
N34          N35   1.325   1_655  A
N34          N40   1.315       .  A
N34         Mn42   2.210       .  S
N35          C45   1.354   1_455  A
N36          N37   1.308       .  A
N36          N38   1.311       .  A
N36         Mn43   2.162       .  S
N37          C46   1.349       .  A
N38          N39   1.309       .  A
N38         Mn42   2.116       .  S
N39          C46   1.342       .  A
N40          N41   1.333       .  A
N40         Mn43   2.266       .  S
N41          C45   1.365       .  A
Mn42        Cl44   2.545       .  S
Mn43        Cl44   2.528       .  S
C45         C633   1.513   1_655  S
C46         C193   1.405   1_655  S
N47          N48   1.307       .  A
N47          N53   1.316       .  A
N47         Mn76   2.132       .  S
N48          C55   1.339       .  A
N49          N51   1.312       .  A
N49          N50   1.324   1_556  A
N49         Mn65   2.205       .  S
N50          C56   1.355   1_554  A
N51          N52   1.326   1_655  A
N51         Mn76   2.228       .  S
N52          C56   1.359   1_455  A
N53          N54   1.307       .  A
N53         Mn65   2.131       .  S
N54          C55   1.338       .  A
C55         C204   1.399   1_656  S
C56         C583   1.500   1_656  S
N57          N63   1.311       .  A
N57          N58   1.308       .  A
N57         Mn87   2.151       .  S
N58          C66   1.349       .  A
N59          N60   1.325       .  A
N59          N61   1.314       .  A
N59         Mn65   2.211       .  S
N60          C67   1.356       .  A
N61          N62   1.327       .  A
N61         Mn87   2.236       .  S
N62          C67   1.359       .  A
N63          N64   1.307       .  A
N63         Mn65   2.119       .  S
N64          C66   1.339       .  A
Mn65        Cl89   2.525       .  S
C66         C261   1.401   1_556  S
C67         C590   1.499   1_556  S
N68          N69   1.306       .  A
N68          N74   1.313       .  A
N68         Mn76   2.115       .  S
N69          C77   1.337       .  A
N70          N72   1.316       .  A
N70          N71   1.330       .  A
N70         Mn88   2.246       .  S
N71          C78   1.361       .  A
N72          N73   1.327   1_655  A
N72         Mn76   2.227       .  S
N73          C78   1.358   1_455  A
N74          N75   1.308       .  A
N74         Mn88   2.162       .  S
N75          C77   1.349       .  A
Mn76        Cl89   2.536       .  S
C77         C183   1.399   1_655  S
C78         C603   1.515   1_655  S
N79          N80   1.310       .  A
N79          N85   1.315       .  A
N79         Mn87   2.143       .  S
N80          C90   1.343       .  A
N81          N82   1.330       .  A
N81          N83   1.315       .  A
N81         Mn88   2.247       .  S
N82          C91   1.361       .  A
N83          N84   1.330       .  A
N83         Mn87   2.235       .  S
N84          C91   1.360       .  A
N85          N86   1.308       .  A
N85         Mn88   2.166       .  S
N86          C90   1.347       .  A
Mn87        Cl89   2.543       .  S
Mn88        Cl89   2.530       .  S
C90         C365   1.408       .  S
C91         C570   1.519       .  S
N92          N93   1.329       .  A
N92          N98   1.313       .  A
N92        Mn121   2.245       .  S
N93         C100   1.360       .  A
N94          N96   1.311       .  A
N94          N95   1.308       .  A
N94        Mn110   2.119       .  S
N95         C101   1.341       .  A
N96          N97   1.308       .  A
N96        Mn121   2.163       .  S
N97         C101   1.351       .  A
N98          N99   1.325       .  A
N98        Mn110   2.202       .  S
N99         C100   1.353       .  A
C100        C550   1.497   1_556  S
C101        C228   1.407   1_556  S
N102        N108   1.311       .  A
N102        N103   1.329   1_565  A
N102       Mn132   2.239       .  S
N103        C111   1.361   1_545  A
N104        N105   1.306       .  A
N104        N106   1.314       .  A
N104       Mn110   2.119       .  S
N105        C112   1.338       .  A
N106        N107   1.300       .  A
N106       Mn132   2.119       .  S
N107        C112   1.337       .  A
N108        N109   1.324   1_556  A
N108       Mn110   2.200       .  S
N109        C111   1.354   1_554  A
Mn110      Cl134   2.531       .  S
C111        C540   1.502   1_566  S
C112        C239   1.388   1_556  S
N113        N114   1.330       .  A
N113        N119   1.315       .  A
N113       Mn121   2.240       .  S
N114        C122   1.360       .  A
N115        N117   1.316       .  A
N115        N116   1.309       .  A
N115       Mn133   2.176       .  S
N116        C123   1.348       .  A
N117        N118   1.311       .  A
N117       Mn121   2.145       .  S
N118        C123   1.343       .  A
N119        N120   1.329       .  A
N119       Mn133   2.235       .  S
N120        C122   1.357       .  A
Mn121      Cl134   2.542       .  S
C122        C533   1.510       .  S
C123        C330   1.411       .  S
N124        N125   1.327       .  A
N124        N130   1.315       .  A
N124       Mn132   2.223       .  S
N125        C135   1.356       .  A
N126        N127   1.308       .  A
N126        N128   1.314       .  A
N126       Mn133   2.176       .  S
N127        C136   1.350       .  A
N128        N129   1.306       .  A
N128       Mn132   2.105       .  S
N129        C136   1.336       .  A
N130        N131   1.330       .  A
N130       Mn133   2.240       .  S
N131        C135   1.359       .  A
Mn132      Cl134   2.529       .  S
Mn133      Cl134   2.527       .  S
C135        C560   1.504   1_565  S
C136        C148   1.400   1_565  S
C137        C490   1.591       .  S
C137        C503   1.595       .  S
C137        C510   1.585       .  S
C137        C520   1.581       .  S
C138        C453   1.595       .  S
C138        C460   1.589       .  S
C138        C470   1.591       .  S
C138        C480   1.580       .  S
C139        C410   1.588       .  S
C139        C420   1.587       .  S
C139        C430   1.585       .  S
C139        C440   1.581       .  S
N140        N141   1.310       .  A
N140        N146   1.312       .  A
N140       Mn169   2.166       .  S
N141        C148   1.351       .  A
N142        N144   1.315       .  A
N142        N143   1.326   1_545  A
N142       Mn158   2.219       .  S
N143        C149   1.356   1_565  A
N144        N145   1.330       .  A
N144       Mn169   2.245       .  S
N145        C149   1.360       .  A
N146        N147   1.305   1_545  A
N146       Mn158   2.108       .  S
N147        C148   1.336   1_565  A
C149        C473   1.501   1_545  S
N150        N156   1.314       .  A
N150        N151   1.304   1_455  A
N150       Mn180   2.123       .  S
N151        C159   1.339   1_655  A
N152        N153   1.326   1_545  A
N152        N154   1.313       .  A
N152       Mn158   2.216       .  S
N153        C160   1.356   1_455  A
N154        N155   1.326   1_455  A
N154       Mn180   2.226       .  S
N155        C160   1.357   1_545  A
N156        N157   1.306   1_545  A
N156       Mn158   2.124       .  S
N157        C159   1.339   1_565  A
Mn158      Cl182   2.530       .  S
C160        C663   1.494       .  S
N161        N162   1.309       .  A
N161        N167   1.316       .  A
N161       Mn169   2.143       .  S
N162        C170   1.342       .  A
N163        N165   1.315       .  A
N163        N164   1.330       .  A
N163       Mn181   2.240       .  S
N164        C171   1.360       .  A
N165        N166   1.329       .  A
N165       Mn169   2.241       .  S
N166        C171   1.361       .  A
N167        N168   1.311       .  A
N167       Mn181   2.178       .  S
N168        C170   1.349       .  A
Mn169      Cl182   2.544       .  S
C170        C285   1.413       .  S
C171        C493   1.519       .  S
N172        N173   1.306   1_455  A
N172        N178   1.313       .  A
N172       Mn180   2.111       .  S
N173        C183   1.337   1_655  A
N174        N175   1.328       .  A
N174        N176   1.315       .  A
N174       Mn181   2.240       .  S
N175        C184   1.360   1_455  A
N176        N177   1.328   1_455  A
N176       Mn180   2.229       .  S
N177        C184   1.359       .  A
N178        N179   1.308       .  A
N178       Mn181   2.166       .  S
N179        C183   1.350       .  A
Mn180      Cl182   2.537       .  S
Mn181      Cl182   2.531       .  S
C184        C433   1.514       .  S
N185        N186   1.308       .  A
N185        N191   1.312       .  A
N185       Mn214   2.161       .  S
N186        C193   1.349       .  A
N187        N189   1.315       .  A
N187        N188   1.324   1_455  A
N187       Mn203   2.204       .  S
N188        C194   1.352   1_655  A
N189        N190   1.335       .  A
N189       Mn214   2.276       .  S
N190        C194   1.367       .  A
N191        N192   1.309   1_455  A
N191       Mn203   2.119       .  S
N192        C193   1.342   1_655  A
C194        C423   1.514   1_455  S
N195        N201   1.315       .  A
N195        N196   1.305   1_554  A
N195       Mn225   2.130       .  S
N196        C204   1.339   1_556  A
N197        N198   1.327   1_455  A
N197        N199   1.310       .  A
N197       Mn203   2.214       .  S
N198        C205   1.359   1_554  A
N199        N200   1.323   1_554  A
N199       Mn225   2.207       .  S
N200        C205   1.355   1_455  A
N201        N202   1.307   1_455  A
N201       Mn203   2.135       .  S
N202        C204   1.341   1_655  A
Mn203      Cl227   2.546       .  S
C205        C683   1.498       .  S
N206        N207   1.306       .  A
N206        N212   1.319       .  A
N206       Mn214   2.150       .  S
N207        C215   1.342       .  A
N208        N210   1.317       .  A
N208        N209   1.331       .  A
N208       Mn226   2.253       .  S
N209        C216   1.362       .  A
N210        N211   1.330       .  A
N210       Mn214   2.240       .  S
N211        C216   1.359       .  A
N212        N213   1.308       .  A
N212       Mn226   2.149       .  S
N213        C215   1.342       .  A
Mn214      Cl227   2.531       .  S
C215        C307   1.402       .  S
C216        C450   1.521       .  S
N217        N218   1.308   1_554  A
N217        N223   1.311       .  A
N217       Mn225   2.116       .  S
N218        C228   1.340   1_556  A
N219        N220   1.334       .  A
N219        N221   1.315       .  A
N219       Mn226   2.277       .  S
N220        C229   1.366       .  A
N221        N222   1.327   1_554  A
N221       Mn225   2.214       .  S
N222        C229   1.354   1_556  A
N223        N224   1.309       .  A
N223       Mn226   2.162       .  S
N224        C228   1.352       .  A
Mn225      Cl227   2.526       .  S
Mn226      Cl227   2.545       .  S
C229        C500   1.515   1_554  S
N230        N231   1.328   1_554  A
N230        N236   1.312       .  A
N230       Mn259   2.227       .  S
N231        C238   1.359   1_545  A
N232        N234   1.317       .  A
N232        N233   1.307   1_545  A
N232       Mn248   2.124       .  S
N233        C239   1.337       .  A
N234        N235   1.301   1_554  A
N234       Mn259   2.120       .  S
N235        C239   1.336   1_546  A
N236        N237   1.324   1_545  A
N236       Mn248   2.210       .  S
N237        C238   1.356   1_554  A
C238        C653   1.499       .  S
N240        N246   1.313       .  A
N240        N241   1.329       .  A
N240       Mn270   2.241       .  S
N241        C249   1.360   1_545  A
N242        N243   1.307   1_545  A
N242        N244   1.311       .  A
N242       Mn248   2.107       .  S
N243        C250   1.339   1_565  A
N244        N245   1.307       .  A
N244       Mn270   2.166       .  S
N245        C250   1.351       .  A
N246        N247   1.326   1_545  A
N246       Mn248   2.214       .  S
N247        C249   1.356       .  A
Mn248      Cl272   2.530       .  S
C249        C463   1.506       .  S
N251        N252   1.328   1_554  A
N251        N257   1.314       .  A
N251       Mn259   2.226       .  S
N252        C260   1.358   1_556  A
N253        N255   1.313       .  A
N253        N254   1.308       .  A
N253       Mn271   2.167       .  S
N254        C261   1.350       .  A
N255        N256   1.307   1_554  A
N255       Mn259   2.115       .  S
N256        C261   1.338   1_556  A
N257        N258   1.328       .  A
N257       Mn271   2.235       .  S
N258        C260   1.358       .  A
Mn259      Cl272   2.530       .  S
C260        C513   1.508   1_554  S
N262        N263   1.329       .  A
N262        N268   1.314       .  A
N262       Mn270   2.232       .  S
N263        C273   1.358       .  A
N264        N265   1.309       .  A
N264        N266   1.316       .  A
N264       Mn271   2.170       .  S
N265        C274   1.348       .  A
N266        N267   1.312       .  A
N266       Mn270   2.153       .  S
N267        C274   1.344       .  A
N268        N269   1.329       .  A
N268       Mn271   2.236       .  S
N269        C273   1.358       .  A
Mn270      Cl272   2.534       .  S
Mn271      Cl272   2.531       .  S
C273        C413   1.508       .  S
C274        C320   1.414       .  S
C275        C403   1.584       .  S
C275        C553   1.580       .  S
C275        C593   1.578       .  S
C275        C610   1.585       .  S
C276        C393   1.587       .  S
C276        C530   1.587       .  S
C276        C600   1.588       .  S
C276        C630   1.590       .  S
N277        N278   1.311       .  A
N277        N283   1.315       .  A
N277       Mn306   2.144       .  S
N278        C285   1.343       .  A
N279        N281   1.314       .  A
N279        N280   1.328       .  A
N279       Mn295   2.234       .  S
N280        C286   1.359       .  A
N281        N282   1.327       .  A
N281       Mn306   2.227       .  S
N282        C286   1.359       .  A
N283        N284   1.309       .  A
N283       Mn295   2.173       .  S
N284        C285   1.347       .  A
C286        C390   1.513       .  S
N287        N293   1.316       .  A
N287        N288   1.312       .  A
N287       Mn317   2.157       .  S
N288        C296   1.345       .  A
N289        N290   1.329       .  A
N289        N291   1.314       .  A
N289       Mn295   2.235       .  S
N290        C297   1.360       .  A
N291        N292   1.326       .  A
N291       Mn317   2.222       .  S
N292        C297   1.358       .  A
N293        N294   1.311       .  A
N293       Mn295   2.174       .  S
N294        C296   1.348       .  A
Mn295      Cl319   2.534       .  S
C296        C352   1.419       .  S
C297        C383   1.512       .  S
N298        N299   1.305       .  A
N298        N304   1.315       .  A
N298       Mn306   2.133       .  S
N299        C307   1.340       .  A
N300        N302   1.314       .  A
N300        N301   1.322       .  A
N300       Mn318   2.210       .  S
N301        C308   1.354       .  A
N302        N303   1.327       .  A
N302       Mn306   2.222       .  S
N303        C308   1.358       .  A
N304        N305   1.309       .  A
N304       Mn318   2.148       .  S
N305        C307   1.344       .  A
Mn306      Cl319   2.545       .  S
C308        C370   1.496       .  S
N309        N310   1.310       .  A
N309        N315   1.313       .  A
N309       Mn317   2.162       .  S
N310        C320   1.347       .  A
N311        N312   1.328       .  A
N311        N313   1.314       .  A
N311       Mn318   2.228       .  S
N312        C321   1.358       .  A
N313        N314   1.327       .  A
N313       Mn317   2.231       .  S
N314        C321   1.357       .  A
N315        N316   1.311       .  A
N315       Mn318   2.153       .  S
N316        C320   1.345       .  A
Mn317      Cl319   2.541       .  S
Mn318      Cl319   2.539       .  S
C321        C400   1.501       .  S
N322        N323   1.310       .  A
N322        N328   1.313       .  A
N322       Mn351   2.162       .  S
N323        C330   1.347       .  A
N324        N326   1.315       .  A
N324        N325   1.324       .  A
N324       Mn340   2.215       .  S
N325        C331   1.356       .  A
N326        N327   1.328       .  A
N326       Mn351   2.237       .  S
N327        C331   1.360       .  A
N328        N329   1.310       .  A
N328       Mn340   2.143       .  S
N329        C330   1.344       .  A
C331        C483   1.504       .  S
N332        N338   1.315       .  A
N332        N333   1.309       .  A
N332       Mn362   2.151       .  S
N333        C341   1.344       .  A
N334        N335   1.325       .  A
N334        N336   1.313       .  A
N334       Mn340   2.212       .  S
N335        C342   1.356       .  A
N336        N337   1.326       .  A
N336       Mn362   2.224       .  S
N337        C342   1.358       .  A
N338        N339   1.311       .  A
N338       Mn340   2.155       .  S
N339        C341   1.344       .  A
Mn340      Cl364   2.536       .  S
C342        C673   1.499       .  S
N343        N344   1.312       .  A
N343        N349   1.314       .  A
N343       Mn351   2.153       .  S
N344        C352   1.345       .  A
N345        N347   1.313       .  A
N345        N346   1.328       .  A
N345       Mn363   2.229       .  S
N346        C353   1.359       .  A
N347        N348   1.327       .  A
N347       Mn351   2.229       .  S
N348        C353   1.359       .  A
N349        N350   1.311       .  A
N349       Mn363   2.174       .  S
N350        C352   1.348       .  A
Mn351      Cl364   2.543       .  S
C353        C523   1.512       .  S
N354        N355   1.309       .  A
N354        N360   1.314       .  A
N354       Mn362   2.139       .  S
N355        C365   1.342       .  A
N356        N357   1.326       .  A
N356        N358   1.315       .  A
N356       Mn363   2.221       .  S
N357        C366   1.356       .  A
N358        N359   1.326       .  A
N358       Mn362   2.230       .  S
N359        C366   1.359       .  A
N360        N361   1.309       .  A
N360       Mn363   2.164       .  S
N361        C365   1.347       .  A
Mn362      Cl364   2.544       .  S
Mn363      Cl364   2.529       .  S
C366        C443   1.506       .  S
C367        C380   1.589       .  S
C367        C563   1.589       .  S
C367        C573   1.590       .  S
C367        C643   1.588       .  S
C368        C373   1.574       .  S
C368        C543   1.579       .  S
C368        C580   1.579       .  S
C368        C620   1.582       .  S
C369        C370   1.403       .  A
C369        C374   1.404       .  A
C369        H376   1.083       .  S
C370        C371   1.406       .  A
C371        C372   1.406       .  A
C371        F378   1.357       .  S
C372        C373   1.419       .  A
C372        H377   1.083       .  S
C373        C374   1.423       .  A
C374        F375   1.355       .  S
C379        C380   1.421       .  A
C379        C384   1.408       .  A
C379        H386   1.082       .  S
C380        C381   1.423       .  A
C381        C382   1.415       .  A
C381        F388   1.357       .  S
C382        C383   1.408       .  A
C382        H387   1.085       .  S
C383        C384   1.408       .  A
C384        F385   1.357       .  S
C389        C390   1.408       .  A
C389        C394   1.413       .  A
C389        H396   1.083       .  S
C390        C391   1.409       .  A
C391        C392   1.411       .  A
C391        F398   1.357       .  S
C392        C393   1.421       .  A
C392        H397   1.080       .  S
C393        C394   1.422       .  A
C394        F395   1.356       .  S
C399        C400   1.405       .  A
C399        C404   1.414       .  A
C399        H406   1.083       .  S
C400        C401   1.404       .  A
C401        C402   1.409       .  A
C401        F408   1.357       .  S
C402        C403   1.421       .  A
C402        H407   1.080       .  S
C403        C404   1.422       .  A
C404        F405   1.357       .  S
C409        C410   1.421       .  A
C409        C414   1.413       .  A
C409        H416   1.081       .  S
C410        C411   1.423       .  A
C411        C412   1.416       .  A
C411        F418   1.357       .  S
C412        C413   1.406       .  A
C412        H417   1.083       .  S
C413        C414   1.407       .  A
C414        F415   1.357       .  S
C419        C420   1.417       .  A
C419        C424   1.409       .  A
C419        H426   1.083       .  S
C420        C421   1.426       .  A
C421        C422   1.419       .  A
C421        F428   1.355       .  S
C422        C423   1.407       .  A
C422        H427   1.083   1_655  S
C423        C424   1.410       .  A
C424        F425   1.357       .  S
C429        C430   1.421       .  A
C429        C434   1.414       .  A
C429        H436   1.079       .  S
C430        C431   1.423       .  A
C431        C432   1.412       .  A
C431        F438   1.356       .  S
C432        C433   1.407       .  A
C432        H437   1.083       .  S
C433        C434   1.410       .  A
C434        F435   1.357       .  S
C439        C440   1.420       .  A
C439        C444   1.405       .  A
C439        H446   1.080       .  S
C440        C441   1.422       .  A
C441        C442   1.412       .  A
C441        F448   1.357       .  S
C442        C443   1.408       .  A
C442        H447   1.083       .  S
C443        C444   1.406       .  A
C444        F445   1.357       .  S
C449        C450   1.410       .  A
C449        C454   1.417       .  A
C449        H456   1.083       .  S
C450        C451   1.408       .  A
C451        C452   1.415       .  A
C451        F458   1.357       .  S
C452        C453   1.424       .  A
C452        H457   1.078       .  S
C453        C454   1.423       .  A
C454        F455   1.357       .  S
C459        C460   1.423       .  A
C459        C464   1.412       .  A
C459        H466   1.077       .  S
C460        C461   1.423       .  A
C461        C462   1.409       .  A
C461        F468   1.357       .  S
C462        C463   1.405       .  A
C462        H467   1.083       .  S
C463        C464   1.407       .  A
C464        F465   1.357   1_565  S
C469        C470   1.420       .  A
C469        C474   1.416       .  A
C469        H476   1.083       .  S
C470        C471   1.433       .  A
C471        C472   1.406       .  A
C471        F478   1.354       .  S
C472        C473   1.397       .  A
C472        H477   1.084       .  S
C473        C474   1.407       .  A
C474        F475   1.357   1_565  S
C479        C480   1.420       .  A
C479        C484   1.412       .  A
C479        H486   1.077       .  S
C480        C481   1.424       .  A
C481        C482   1.406       .  A
C481        F488   1.357       .  S
C482        C483   1.404       .  A
C482        H487   1.083       .  S
C483        C484   1.408       .  A
C484        F485   1.357       .  S
C489        C490   1.421       .  A
C489        C494   1.419       .  A
C489        H496   1.080       .  S
C490        C491   1.425       .  A
C491        C492   1.411       .  A
C491        F498   1.355       .  S
C492        C493   1.405       .  A
C492        H497   1.083       .  S
C493        C494   1.414       .  A
C494        F495   1.357       .  S
C499        C500   1.403       .  A
C499        C504   1.415       .  A
C499        H506   1.083       .  S
C500        C501   1.411       .  A
C501        C502   1.419       .  A
C501        F508   1.357       .  S
C502        C503   1.419       .  A
C502        H507   1.082       .  S
C503        C504   1.432       .  A
C504        F505   1.356       .  S
C509        C510   1.419       .  A
C509        C514   1.412       .  A
C509        H516   1.080       .  S
C510        C511   1.427       .  A
C511        C512   1.413       .  A
C511        F518   1.356       .  S
C512        C513   1.405       .  A
C512        H517   1.083       .  S
C513        C514   1.408       .  A
C514        F515   1.357       .  S
C519        C520   1.417       .  A
C519        C524   1.409       .  A
C519        H526   1.083       .  S
C520        C521   1.426       .  A
C521        C522   1.414       .  A
C521        F528   1.355       .  S
C522        C523   1.408       .  A
C522        H527   1.083       .  S
C523        C524   1.409       .  A
C524        F525   1.357       .  S
C529        C530   1.420       .  A
C529        C534   1.414       .  A
C529        H536   1.080       .  S
C530        C531   1.424       .  A
C531        C532   1.416       .  A
C531        F538   1.357       .  S
C532        C533   1.406       .  A
C532        H537   1.083       .  S
C533        C534   1.408       .  A
C534        F535   1.357       .  S
C539        C540   1.406       .  A
C539        C544   1.410       .  A
C539        H546   1.083   1_545  S
C540        C541   1.404   1_554  A
C541        C542   1.408   1_556  A
C541        F548   1.357       .  S
C542        C543   1.421       .  A
C542        H547   1.077       .  S
C543        C544   1.422       .  A
C544        F545   1.357       .  S
C549        C550   1.404       .  A
C549        C554   1.411       .  A
C549        H556   1.083   1_554  S
C550        C551   1.403       .  A
C551        C552   1.408       .  A
C551        F558   1.357       .  S
C552        C553   1.421       .  A
C552        H557   1.080       .  S
C553        C554   1.422       .  A
C554        F555   1.357       .  S
C559        C560   1.404       .  A
C559        C564   1.415       .  A
C559        H566   1.078   1_545  S
C560        C561   1.405       .  A
C561        C562   1.413       .  A
C561        F568   1.358       .  S
C562        C563   1.423       .  A
C562        H567   1.069       .  S
C563        C564   1.424       .  A
C564        F565   1.357       .  S
C569        C570   1.408       .  A
C569        C574   1.414       .  A
C569        H576   1.083       .  S
C570        C571   1.410       .  A
C571        C572   1.416       .  A
C571        F578   1.357       .  S
C572        C573   1.422       .  A
C572        H577   1.078       .  S
C573        C574   1.424       .  A
C574        F575   1.356       .  S
C579        C580   1.419       .  A
C579        C584   1.409       .  A
C579        H586   1.079       .  S
C580        C581   1.423       .  A
C581        C582   1.406       .  A
C581        F588   1.356       .  S
C582        C583   1.402       .  A
C582        H587   1.083   1_554  S
C583        C584   1.408       .  A
C584        F585   1.357   1_455  S
C589        C590   1.406       .  A
C589        C594   1.411       .  A
C589        H596   1.083       .  S
C590        C591   1.404       .  A
C591        C592   1.405       .  A
C591        F598   1.357   1_554  S
C592        C593   1.419       .  A
C592        H597   1.082       .  S
C593        C594   1.423       .  A
C594        F595   1.355       .  S
C599        C600   1.420       .  A
C599        C604   1.415       .  A
C599        H606   1.083       .  S
C600        C601   1.427       .  A
C601        C602   1.411       .  A
C601        F608   1.355       .  S
C602        C603   1.406       .  A
C602        H607   1.083       .  S
C603        C604   1.411       .  A
C604        F605   1.357   1_455  S
C609        C610   1.421       .  A
C609        C614   1.414       .  A
C609        H616   1.080       .  S
C610        C611   1.422       .  A
C611        C612   1.413       .  A
C611        F618   1.357       .  S
C612        C613   1.408       .  A
C612        H617   1.083       .  S
C613        C614   1.410       .  A
C614        F615   1.357       .  S
C619        C620   1.423       .  A
C619        C624   1.403       .  A
C619        H626   1.079       .  S
C620        C621   1.421       .  A
C621        C622   1.412       .  A
C621        F628   1.357       .  S
C622        C623   1.404       .  A
C622        H627   1.083   1_445  S
C623        C624   1.399       .  A
C624        F625   1.358       .  S
C629        C630   1.419       .  A
C629        C634   1.411       .  A
C629        H636   1.083       .  S
C630        C631   1.427       .  A
C631        C632   1.417   1_455  A
C631        F638   1.354   1_455  S
C632        C633   1.406   1_655  A
C632        H637   1.083       .  S
C633        C634   1.410       .  A
C634        F635   1.357       .  S
C639        C640   1.406       .  A
C639        C644   1.413       .  A
C639        H646   1.078       .  S
C640        C641   1.408       .  A
C641        C642   1.414       .  A
C641        F648   1.357   1_545  S
C642        C643   1.422       .  A
C642        H647   1.079       .  S
C643        C644   1.425       .  A
C644        F645   1.355       .  S
C649        C650   1.418       .  A
C649        C654   1.410       .  A
C649        H656   1.083       .  S
C650        C651   1.426       .  A
C651        C652   1.406       .  A
C651        F658   1.356       .  S
C652        C653   1.402       .  A
C652        H657   1.084   1_556  S
C653        C654   1.407       .  A
C654        F655   1.357       .  S
C659        C660   1.420       .  A
C659        C664   1.411       .  A
C659        H666   1.083       .  S
C660        C661   1.427       .  A
C661        C662   1.407       .  A
C661        F668   1.355       .  S
C662        C663   1.400       .  A
C662        H667   1.084       .  S
C663        C664   1.404       .  A
C664        F665   1.357   1_655  S
C669        C670   1.419       .  A
C669        C674   1.408       .  A
C669        H676   1.078       .  S
C670        C671   1.423       .  A
C671        C672   1.407       .  A
C671        F678   1.356       .  S
C672        C673   1.403       .  A
C672        H677   1.083       .  S
C673        C674   1.407       .  A
C674        F675   1.357       .  S
C679        C680   1.417       .  A
C679        C684   1.405       .  A
C679        H686   1.079       .  S
C680        C681   1.422       .  A
C681        C682   1.408       .  A
C681        F688   1.357       .  S
C682        C683   1.404       .  A
C682        H687   1.083       .  S
C683        C684   1.407       .  A
C684        F685   1.357   1_655  S
