geometry optimzed in LAMMPS
_audit_creation_date              2020-11-30 
_audit_creation_method            'lammps2cif' 
_symmetry_space_group_name_H-M    'P1' 
_symmetry_Int_Tables_number       1 
_symmetry_cell_setting            triclinic 
loop_ 
_symmetry_equiv_pos_as_xyz 
  x,y,z 
_cell_length_a                    21.890572551500068 
_cell_length_b                    21.90687536696436 
_cell_length_c                    36.00176702631144 
_cell_angle_alpha                 90.3113861750682 
_cell_angle_beta                  89.78429091923627 
_cell_angle_gamma                 120.29392946640208 
loop_ 
_atom_site_label 
_atom_site_type_symbol 
_atom_site_fract_x 
_atom_site_fract_y 
_atom_site_fract_z 
_atom_site_charge 
C1          C  0.35109943  0.17692438  0.38754393     0.00940
C2          C  0.38836442  0.19668974  0.42013317     0.00940
C3          C  0.35355914  0.18429796  0.08647690     0.00940
C4          C  0.39008603  0.20400853  0.05367359     0.00940
O5          O  0.03678880  0.83408920  0.19137709    -0.72570
O6          O  0.15756564  0.95808688  0.27394882    -0.73550
O7          O  0.16388036  0.96184591  0.19487781    -0.62170
O8          O  0.02987505  0.83004618  0.26994776    -0.70580
O9          O  0.08762740  0.77082083  0.27165305    -0.70130
O10         O  0.22424785  0.90517002  0.19514656    -0.61380
O11         O  0.21870607  0.90232812  0.27474729    -0.73890
O12         O  0.09400912  0.77446677  0.19242373    -0.72670
Cu13       Cu  0.09518742  0.89803571  0.23250387     1.04560
Cu14       Cu  0.15840481  0.83610404  0.23351176     1.04330
C15         C  0.04605293  0.78472819  0.17882034     0.93630
C16         C  0.20642305  0.94956331  0.28772315     0.92770
C17         C  0.21384729  0.95355272  0.18246463     0.84920
C18         C  0.03776390  0.78049862  0.28305522     0.91190
C19         C  0.79973085  0.59971126  0.10064993     0.00940
C20         C  0.78008216  0.56881519  0.06592783     0.00940
C21         C  0.81605465  0.63946024  0.38776637     0.00940
C22         C  0.79765831  0.59667967  0.41888933     0.00940
C23         C  0.81017015  0.17405234  0.09063463     0.00940
C24         C  0.78840942  0.19660304  0.06014688     0.00940
C25         C  0.80576878  0.18297079  0.38126337     0.00940
C26         C  0.77796392  0.19655878  0.41273242     0.00940
O27         O  0.22312982  0.32851449  0.27878654    -0.72570
O28         O  0.08900035  0.32462016  0.20057244    -0.73550
O29         O  0.09252227  0.32809488  0.27981442    -0.62170
O30         O  0.21988128  0.32553841  0.19934482    -0.70580
O31         O  0.15989554  0.20803642  0.20030768    -0.70130
O32         O  0.03676619  0.21071063  0.28152887    -0.61380
O33         O  0.03221264  0.20725070  0.20288644    -0.73890
O34         O  0.16407648  0.21094006  0.27892249    -0.72670
Cu35       Cu  0.15831976  0.33108700  0.23962882     1.04560
Cu36       Cu  0.09620759  0.20534389  0.24097193     1.04330
C37         C  0.21375168  0.26979306  0.29117704     0.93630
C38         C  0.04019903  0.26429358  0.18902904     0.92770
C39         C  0.04517746  0.26937743  0.29356344     0.84920
C40         C  0.20902740  0.26609788  0.18695124     0.91190
O41         O  0.78458905  0.93945439  0.19327247    -0.72570
O42         O  0.77928558  0.82366578  0.27945146    -0.73550
O43         O  0.77736347  0.80750192  0.20281252    -0.62170
O44         O  0.78686197  0.95394912  0.27143232    -0.70580
O45         O  0.66939810  0.89858078  0.27342406    -0.70130
O46         O  0.66000632  0.75115485  0.20105218    -0.61380
O47         O  0.66168706  0.76405486  0.27931565    -0.73890
O48         O  0.66730000  0.88700485  0.19450834    -0.72670
Cu49       Cu  0.78581142  0.88302169  0.23646668     1.04560
Cu50       Cu  0.66015684  0.82335259  0.23687249     1.04330
C51         C  0.72707086  0.93328721  0.18108869     0.93630
C52         C  0.72052467  0.77531610  0.29262818     0.92770
C53         C  0.71849292  0.75443242  0.19284438     0.84920
C54         C  0.72994213  0.94861705  0.28407900     0.91190
C55         C  0.18708823  0.37259251  0.88174697     0.00940
C56         C  0.20181994  0.41170047  0.91398226     0.00940
C57         C  0.17717754  0.80834664  0.88212157     0.00940
C58         C  0.19605346  0.79128509  0.91504617     0.00940
C59         C  0.62841848  0.82805096  0.88791263     0.00940
C60         C  0.58976627  0.80177152  0.92010477     0.00940
C61         C  0.17040136  0.80874030  0.59154974     0.00940
C62         C  0.18992499  0.78646407  0.55999865     0.00940
O63         O  0.31881259  0.09359117  0.77771809    -0.72570
O64         O  0.32437822  0.22598271  0.69807594    -0.73550
O65         O  0.32695804  0.22812279  0.77719790    -0.62170
O66         O  0.31796253  0.09244305  0.69856448    -0.70580
O67         O  0.20048072  0.03711907  0.70034310    -0.70130
O68         O  0.20951105  0.17443498  0.77706622    -0.61380
O69         O  0.20678227  0.16848191  0.69842814    -0.73890
O70         O  0.20167509  0.04264239  0.77923712    -0.72670
Cu71       Cu  0.32631530  0.16200683  0.73785847     1.04560
Cu72       Cu  0.20062826  0.10380282  0.73877677     1.04330
C73         C  0.25885653  0.04776387  0.79120410     0.93630
C74         C  0.26576044  0.21718245  0.68572437     0.92770
C75         C  0.26946852  0.22253519  0.78930301     0.84920
C76         C  0.25769415  0.04340103  0.68726361     0.91190
C77         C  0.18057378  0.36575018  0.59236142     0.00940
C78         C  0.19972215  0.40687774  0.56105223     0.00940
C79         C  0.61988931  0.81936979  0.59447096     0.00940
C80         C  0.58072242  0.79341206  0.56229022     0.00940
O81         O  0.80893498  0.03913992  0.77602023    -0.72570
O82         O  0.94358470  0.16109951  0.69716934    -0.73550
O83         O  0.94494822  0.16021342  0.77575466    -0.62170
O84         O  0.80909292  0.04083347  0.69762691    -0.70580
O85         O  0.75962514  0.10798896  0.69832977    -0.70130
O86         O  0.89938950  0.23060140  0.77769445    -0.61380
O87         O  0.89762150  0.23127489  0.69868052    -0.73890
O88         O  0.76019446  0.10683663  0.77790323    -0.72670
Cu89       Cu  0.87825657  0.09811103  0.73664353     1.04560
Cu90       Cu  0.82735196  0.17167358  0.73820748     1.04330
C91         C  0.76333609  0.05332296  0.78932929     0.93630
C92         C  0.94182316  0.21504412  0.68539213     0.92770
C93         C  0.94439775  0.21403321  0.78910550     0.84920
C94         C  0.76335164  0.05540558  0.68549654     0.91190
O95         O  0.76151948  0.67879463  0.77967059    -0.72570
O96         O  0.88736124  0.66805820  0.70002405    -0.73550
O97         O  0.88686208  0.66719562  0.77947641    -0.62170
O98         O  0.76187306  0.67916958  0.70069368    -0.70580
O99         O  0.83038235  0.79603930  0.70210583    -0.70130
O100        O  0.95272613  0.78447726  0.77948184    -0.61380
O101        O  0.95170839  0.78538949  0.70144033    -0.73890
O102        O  0.83133328  0.79559080  0.77985824    -0.72670
Cu103      Cu  0.82189032  0.66875452  0.74000636     1.04560
Cu104      Cu  0.89367575  0.79407192  0.74078493     1.04330
C105        C  0.77747611  0.73989995  0.79207886     0.93630
C106        C  0.93887964  0.72620732  0.68793577     0.92770
C107        C  0.93953622  0.72450137  0.79166045     0.84920
C108        C  0.77730344  0.74034810  0.68902218     0.91190
C109        C  0.46404613  0.47510874  0.98898966     0.00940
C110        C  0.53010177  0.53529288  0.98852840     0.00940
C111        C  0.98877455  0.52549121  0.98615608     0.00940
C112        C  0.98947149  0.46258789  0.98551136     0.00940
C113        C  0.45608983  0.99756758  0.99080864     0.00940
C114        C  0.51684506  0.99283760  0.99538630     0.00940
C115        C  0.51140375  0.98355327  0.48113301     0.00940
C116        C  0.44863519  0.98483583  0.48269806     0.00940
C117        C  0.98916812  0.51696855  0.48986097     0.00940
C118        C  0.98571492  0.45217713  0.49098363     0.00940
C119        C  0.46226463  0.46907314  0.48727680     0.00940
C120        C  0.52729666  0.53048471  0.48848763     0.00940
C121        C  0.61096133  0.69632607  0.54799451    -0.20930
C122        C  0.56409284  0.72271878  0.54530359    -0.08970
C123        C  0.50135134  0.68156688  0.52464568     0.29890
C124        C  0.48976210  0.62048305  0.50566874    -0.20930
C125        C  0.53485532  0.59274955  0.51084566    -0.08980
C126        C  0.59311552  0.62961183  0.53457233     0.29890
F127        F  0.63738502  0.60450954  0.54156477    -0.19510
H128        H  0.66336858  0.72713689  0.55903610     0.18260
H129        H  0.44559050  0.59539437  0.48671828     0.18260
F130        F  0.45180557  0.70113569  0.52168766    -0.19490
C131        C  0.51910195  0.92504177  0.54010356    -0.20930
C132        C  0.52223006  0.92883761  0.50119083    -0.08970
C133        C  0.54336398  0.88535293  0.48261116     0.29890
C134        C  0.56364933  0.84355703  0.50259729    -0.20930
C135        C  0.55674118  0.83766434  0.54146415    -0.08980
C136        C  0.52837857  0.87516739  0.55943072     0.29890
F137        F  0.50821780  0.86331505  0.59551473    -0.19510
H138        H  0.51120176  0.96169514  0.55616702     0.18260
H139        H  0.58376561  0.81457683  0.48739558     0.18260
F140        F  0.54471238  0.88214518  0.44520103    -0.19490
C141        C  0.69866947  0.95061415  0.59759420    -0.20930
C142        C  0.64007436  0.88901863  0.61145862    -0.08970
C143        C  0.61468624  0.89008525  0.64728747     0.29890
C144        C  0.65062703  0.94966436  0.66986982    -0.20930
C145        C  0.71349590  0.00802935  0.65751684    -0.08980
C146        C  0.73624411  0.00946545  0.62081412     0.29890
F147        F  0.79854060  0.06458460  0.60884530    -0.19510
H148        H  0.71985840  0.95012649  0.57042907     0.18260
H149        H  0.63346219  0.94733995  0.69834324     0.18260
F150        F  0.55885711  0.83095241  0.66159837    -0.19490
C151        C  0.66019275  0.71121334  0.66185474    -0.20930
C152        C  0.73456785  0.74888747  0.66032001    -0.08970
C153        C  0.76896641  0.80198082  0.63361510     0.29890
C154        C  0.73016205  0.82076700  0.61080924    -0.20930
C155        C  0.65618882  0.78688619  0.61389931    -0.08980
C156        C  0.62095717  0.73036336  0.63880566     0.29890
F157        F  0.54953234  0.69676393  0.64225563    -0.19510
H158        H  0.63292015  0.67019557  0.68238593     0.18260
H159        H  0.75816537  0.86357233  0.59130153     0.18260
F160        F  0.84059235  0.83755914  0.63048528    -0.19490
C161        C  0.34270593  0.45573128  0.48601431    -0.20930
C162        C  0.39943296  0.46284638  0.50698069    -0.08970
C163        C  0.39499119  0.46276186  0.54579626     0.29890
C164        C  0.33255200  0.45101738  0.56303375    -0.20930
C165        C  0.27150095  0.43492155  0.54219147    -0.08980
C166        C  0.28080692  0.44495333  0.50316258     0.29890
F167        F  0.23252824  0.44707104  0.48079770    -0.19510
H168        H  0.34693601  0.45967011  0.45601738     0.18260
H169        H  0.33279281  0.45481369  0.59285581     0.18260
F170        F  0.45035309  0.47242774  0.56698680    -0.19490
C171        C  0.12175513  0.46095328  0.56147326    -0.20930
C172        C  0.14447671  0.41857578  0.54370007    -0.08970
C173        C  0.10784202  0.38024482  0.51202991     0.29890
C174        C  0.06062644  0.39548081  0.49431490    -0.20930
C175        C  0.03934381  0.44022909  0.51098398    -0.08980
C176        C  0.06610028  0.46744640  0.54669668     0.29890
F177        F  0.03830134  0.49926962  0.56757393    -0.19510
H178        H  0.14517254  0.48657187  0.58761759     0.18260
H179        H  0.03909802  0.37034218  0.46780006     0.18260
F180        F  0.11998072  0.33006449  0.49735130    -0.19490
C181        C  0.09779371  0.36851643  0.63939652    -0.20930
C182        C  0.10886570  0.33449798  0.60914925    -0.08970
C183        C  0.05793532  0.26405986  0.60094696     0.29890
C184        C  0.00081730  0.22627237  0.62490650    -0.20930
C185        C  0.99263068  0.25886741  0.65663688    -0.08980
C186        C  0.03948344  0.33118123  0.66283859     0.29890
F187        F  0.03295937  0.36367949  0.69354488    -0.19510
H188        H  0.13692798  0.42251039  0.64635860     0.18260
H189        H  0.96470033  0.17059596  0.61965408     0.18260
F190        F  0.06661779  0.23024342  0.57149554    -0.19490
C191        C  0.21989419  0.27736382  0.59816260    -0.20930
C192        C  0.22403953  0.34013351  0.61067974    -0.08970
C193        C  0.25378981  0.36751635  0.64572677     0.29890
C194        C  0.27472117  0.33030403  0.66876043    -0.20930
C195        C  0.26441027  0.26449183  0.65755872    -0.08980
C196        C  0.23873419  0.23895904  0.62173827     0.29890
F197        F  0.22690094  0.17450996  0.61073653    -0.19510
H198        H  0.19629866  0.25506625  0.57148149     0.18260
H199        H  0.29338893  0.34997346  0.69654583     0.18260
F200        F  0.25831825  0.42804455  0.65852873    -0.19490
C201        C  0.32092398  0.88011672  0.56012490    -0.20930
C202        C  0.25943470  0.83293358  0.54037252    -0.08970
C203        C  0.26390161  0.83318811  0.50106958     0.29890
C204        C  0.32782814  0.87792188  0.48291979    -0.20930
C205        C  0.38673688  0.92795513  0.50301018    -0.08980
C206        C  0.38026535  0.93200625  0.54161675     0.29890
F207        F  0.42725225  0.99016655  0.56099389    -0.19510
H208        H  0.32279077  0.88029194  0.59002140     0.18260
H209        H  0.32988482  0.87715934  0.45286221     0.18260
F210        F  0.20604435  0.79270689  0.47984217    -0.19490
C211        C  0.11581918  0.60740084  0.51007641    -0.20930
C212        C  0.04257094  0.58265634  0.51032612    -0.08970
C213        C  0.01962617  0.62653916  0.52644508     0.29890
C214        C  0.06796927  0.69386883  0.53873277    -0.20930
C215        C  0.13971734  0.71565096  0.54268897    -0.08980
C216        C  0.16332542  0.67095910  0.52821377     0.29890
F217        F  0.23251304  0.68972519  0.53044347    -0.19510
H218        H  0.13630465  0.57738700  0.49633167     0.18260
H219        H  0.04812136  0.72878814  0.54494684     0.18260
F220        F  0.94995623  0.60595743  0.52897203    -0.19490
C221        C  0.08365243  0.71719591  0.63585888    -0.20930
C222        C  0.09918828  0.76935136  0.60898848    -0.08970
C223        C  0.05325360  0.79614527  0.60462546     0.29890
C224        C  0.99627740  0.77538569  0.62845679    -0.20930
C225        C  0.98423907  0.72822360  0.65737398    -0.08980
C226        C  0.02611834  0.69652338  0.66010124     0.29890
F227        F  0.01607901  0.65170218  0.68838392    -0.19510
H228        H  0.11924978  0.69703989  0.63996471     0.18260
H229        H  0.96432715  0.80016263  0.62600043     0.18260
F230        F  0.06604859  0.84569220  0.57852741    -0.19490
C231        C  0.23421119  0.87431105  0.64810795    -0.20930
C232        C  0.21455652  0.87701210  0.61130031    -0.08970
C233        C  0.22088771  0.94022824  0.59801462     0.29890
C234        C  0.23937960  0.99692877  0.62247550    -0.20930
C235        C  0.25321319  0.99142521  0.65997101    -0.08980
C236        C  0.25344139  0.93104573  0.67229340     0.29890
F237        F  0.26636131  0.92463166  0.70849538    -0.19510
H238        H  0.22929260  0.82593507  0.65886041     0.18260
H239        H  0.23921375  0.04352158  0.61269443     0.18260
F240        F  0.20327851  0.94478258  0.56245564    -0.19490
C241        C  0.61987569  0.70565162  0.93436191    -0.20930
C242        C  0.57301520  0.73190683  0.93769528    -0.08970
C243        C  0.51160395  0.69154744  0.95987321     0.29890
C244        C  0.49824652  0.62858304  0.97633632    -0.20930
C245        C  0.54171594  0.60023880  0.96914336    -0.08980
C246        C  0.60228565  0.63906279  0.94726691     0.29890
F247        F  0.64711310  0.61452205  0.94020630    -0.19510
H248        H  0.67213883  0.73662210  0.92329520     0.18260
H249        H  0.45347900  0.60194671  0.99495267     0.18260
F250        F  0.46380466  0.71164594  0.96711627    -0.19490
C251        C  0.49948056  0.83471410  0.93971678    -0.20930
C252        C  0.56871471  0.84696265  0.94094483    -0.08970
C253        C  0.61649493  0.89780598  0.96566822     0.29890
C254        C  0.59907686  0.94350401  0.98356663    -0.20930
C255        C  0.53007073  0.93434141  0.98108985    -0.08980
C256        C  0.47871660  0.87035573  0.96450143     0.29890
F257        F  0.41068335  0.83586969  0.97638783    -0.19510
H258        H  0.45973593  0.79138963  0.92326072     0.18260
H259        H  0.64058337  0.98509558  0.99990011     0.18260
F260        F  0.67986195  0.90308347  0.97270277    -0.19490
C261        C  0.62492249  0.73986690  0.84150712    -0.20930
C262        C  0.66242074  0.79392635  0.86761994    -0.08970
C263        C  0.73582013  0.82253032  0.87134205     0.29890
C264        C  0.77145855  0.79998732  0.84830146    -0.20930
C265        C  0.73513318  0.74903840  0.82081885    -0.08980
C266        C  0.66116286  0.71716375  0.81815271     0.29890
F267        F  0.62513082  0.66875908  0.79116492    -0.19510
H268        H  0.56852006  0.71795575  0.83807569     0.18260
H269        H  0.82837807  0.82452659  0.85096604     0.18260
F270        F  0.77309539  0.87188367  0.89765906    -0.19490
C271        C  0.61514733  0.89275510  0.83509082    -0.20930
C272        C  0.64480636  0.89637121  0.87022675    -0.08970
C273        C  0.70629033  0.95988729  0.88047679     0.29890
C274        C  0.74110736  0.01443420  0.85474554    -0.20930
C275        C  0.71535169  0.00711205  0.81853747    -0.08980
C276        C  0.65037955  0.94737116  0.80927409     0.29890
F277        F  0.62492399  0.93851137  0.77414968    -0.19510
H278        H  0.56892765  0.84412478  0.82614113     0.18260
H279        H  0.79164561  0.05991017  0.86214046     0.18260
F280        F  0.73850426  0.96621556  0.91340319    -0.19490
C281        C  0.13128227  0.71714346  0.97193418    -0.20930
C282        C  0.14801469  0.72075783  0.93383644    -0.08970
C283        C  0.11620014  0.65623929  0.91376088     0.29890
C284        C  0.06373831  0.59313766  0.93009374    -0.20930
C285        C  0.04581725  0.59129043  0.96778950    -0.08980
C286        C  0.08178637  0.65387636  0.98863217     0.29890
F287        F  0.06866400  0.65413418  0.02551810    -0.19510
H288        H  0.15453330  0.76247500  0.98974019     0.18260
H289        H  0.03775531  0.54548564  0.91337892     0.18260
F290        F  0.13687573  0.65350269  0.87857738    -0.19490
C291        C  0.39205020  0.92319223  0.93368526    -0.20930
C292        C  0.39031971  0.94418247  0.97053780    -0.08970
C293        C  0.32337784  0.92101274  0.98680763     0.29890
C294        C  0.26148265  0.87761108  0.96706960    -0.20930
C295        C  0.26349582  0.84541581  0.93369398    -0.08980
C296        C  0.33017641  0.86907516  0.91707109     0.29890
F297        F  0.33590889  0.83874740  0.88539970    -0.19510
H298        H  0.44204568  0.94386714  0.91921249     0.18260
H299        H  0.21221085  0.86998406  0.97810322     0.18260
F300        F  0.31756300  0.94260460  0.02140045    -0.19490
C301        C  0.19442148  0.92861682  0.87461600    -0.20930
C302        C  0.21686858  0.88050270  0.86575712    -0.08970
C303        C  0.26224900  0.89461790  0.83512055     0.29890
C304        C  0.28189773  0.95397200  0.81295030    -0.20930
C305        C  0.25393029  0.99801247  0.81993007    -0.08980
C306        C  0.21153745  0.98613891  0.85150977     0.29890
F307        F  0.18321560  0.02765953  0.85869044    -0.19510
H308        H  0.15840017  0.91802942  0.89760894     0.18260
H309        H  0.31362771  0.96177059  0.78834402     0.18260
F310        F  0.28240872  0.84796731  0.82445552    -0.19490
C311        C  0.04821748  0.76594748  0.87816308    -0.20930
C312        C  0.10710566  0.76378262  0.86423589    -0.08970
C313        C  0.10336854  0.73541693  0.82858709     0.29890
C314        C  0.04397893  0.71470643  0.80631075    -0.20930
C315        C  0.98827274  0.72328746  0.81898050    -0.08980
C316        C  0.98942683  0.74676281  0.85547014     0.29890
F317        F  0.93654533  0.75685675  0.86791332    -0.19510
H318        H  0.05067702  0.78886439  0.90524451     0.18260
H319        H  0.04420885  0.69780247  0.77799106     0.18260
F320        F  0.15916911  0.73236507  0.81429696    -0.19490
C321        C  0.27104743  0.42017279  0.97121660    -0.20930
C322        C  0.27131993  0.43668571  0.93357952    -0.08970
C323        C  0.33718233  0.47420782  0.91523210     0.29890
C324        C  0.39989054  0.48811007  0.93310343    -0.20930
C325        C  0.39931571  0.46954474  0.97054195    -0.08980
C326        C  0.33395766  0.43705216  0.98960702     0.29890
F327        F  0.33053976  0.41933996  0.02594311    -0.19510
H328        H  0.22150323  0.39241573  0.98626864     0.18260
H329        H  0.44871206  0.51221842  0.91737105     0.18260
F330        F  0.34106104  0.49725491  0.87995801    -0.19490
C331        C  0.07513695  0.37561054  0.93209083    -0.20930
C332        C  0.14782329  0.42628256  0.93224710    -0.08970
C333        C  0.16869557  0.49083959  0.95086347     0.29890
C334        C  0.11826470  0.50317353  0.96829623    -0.20930
C335        C  0.04518666  0.45473936  0.96450649    -0.08980
C336        C  0.02473630  0.39158884  0.94487660     0.29890
F337        F  0.95531356  0.34257889  0.94011022    -0.19510
H338        H  0.05588230  0.32225015  0.92280805     0.18260
H339        H  0.13673846  0.55054153  0.98490451     0.18260
F340        F  0.23793307  0.54178756  0.95287030    -0.19490
C341        C  0.07712202  0.26146525  0.86552281    -0.20930
C342        C  0.11662630  0.33555529  0.86320916    -0.08970
C343        C  0.09325957  0.37048624  0.83959140     0.29890
C344        C  0.03357241  0.33102246  0.81696746    -0.20930
C345        C  0.99747837  0.25662837  0.81758698    -0.08980
C346        C  0.01827876  0.22241125  0.84312296     0.29890
F347        F  0.98303044  0.15077210  0.84553289    -0.19510
H348        H  0.09331769  0.23353104  0.88408652     0.18260
H349        H  0.01830090  0.35829820  0.79740262     0.18260
F350        F  0.13040637  0.44198040  0.83683909    -0.19490
C351        C  0.23857590  0.29402646  0.87802564    -0.20930
C352        C  0.23629375  0.35275935  0.86430803    -0.08970
C353        C  0.25943195  0.37565206  0.82782837     0.29890
C354        C  0.27721359  0.33612925  0.80432329    -0.20930
C355        C  0.27123143  0.27296201  0.81677429    -0.08980
C356        C  0.25457541  0.25334598  0.85413291     0.29890
F357        F  0.24753337  0.19167871  0.86648948    -0.19510
H358        H  0.21961982  0.27488846  0.90579666     0.18260
H359        H  0.28947511  0.35143230  0.77547283     0.18260
F360        F  0.25684589  0.43164937  0.81373435    -0.19490
C361        C  0.85495044  0.32917317  0.41678474    -0.20930
C362        C  0.82675075  0.26284146  0.43385647    -0.08970
C363        C  0.85111778  0.25959647  0.46945634     0.29890
C364        C  0.89745989  0.32171582  0.48854018    -0.20930
C365        C  0.92825431  0.38810672  0.47092313    -0.08980
C366        C  0.90888992  0.39005618  0.43376477     0.29890
F367        F  0.94462686  0.44910495  0.41282824    -0.19510
H368        H  0.83817592  0.33322433  0.38919941     0.18260
H369        H  0.91238682  0.31752545  0.51665022     0.18260
F370        F  0.82932434  0.19630001  0.48597058    -0.19490
C371        C  0.65473893  0.08353323  0.40994172    -0.20930
C372        C  0.70429883  0.14553565  0.42889658    -0.08970
C373        C  0.68104728  0.15770093  0.46380267     0.29890
C374        C  0.61855650  0.10514683  0.48060297    -0.20930
C375        C  0.57579434  0.04044103  0.46274084    -0.08980
C376        C  0.59447112  0.03049791  0.42702795     0.29890
F377        F  0.54906815  0.97381912  0.40618971    -0.19630
H378        H  0.65755164  0.07519147  0.38098920     0.18260
H379        H  0.60317502  0.11522147  0.50755145     0.18260
F380        F  0.71547386  0.22107572  0.48138336    -0.19490
C381        C  0.72233388  0.05450707  0.30119972    -0.20930
C382        C  0.73588110  0.00095890  0.31157149    -0.08970
C383        C  0.76510668  0.00361805  0.34662480     0.29890
C384        C  0.78249366  0.06043291  0.37060591    -0.20930
C385        C  0.77271980  0.11621288  0.35948279    -0.08980
C386        C  0.74143478  0.11234416  0.32476889     0.29890
F387        F  0.72999336  0.16478260  0.31364908    -0.19510
H388        H  0.70056235  0.05339240  0.27406500     0.18260
H389        H  0.80705237  0.06284893  0.39704892     0.18260
F390        F  0.77964464  0.95275512  0.35691360    -0.19490
C391        C  0.95239216  0.29401787  0.31531367    -0.20930
C392        C  0.99760376  0.26778875  0.32277788    -0.08970
C393        C  0.98809889  0.22902352  0.35534407     0.29890
C394        C  0.93052675  0.21192724  0.37855780    -0.20930
C395        C  0.87970880  0.22981063  0.36840127    -0.08980
C396        C  0.89288415  0.27408946  0.33758043     0.29890
F397        F  0.84441241  0.29145792  0.32658885    -0.19510
H398        H  0.95890686  0.32355666  0.29012319     0.18260
H399        H  0.92099505  0.17739757  0.40197943     0.18260
F400        F  0.03091011  0.20258236  0.36296755    -0.19490
C401        C  0.63483367  0.10433742  0.99009088    -0.20930
C402        C  0.58067508  0.05366531  0.01270777    -0.08970
C403        C  0.59546734  0.05105236  0.05024722     0.29890
C404        C  0.65736934  0.10483260  0.06589087    -0.20930
C405        C  0.71526904  0.15061166  0.04346108    -0.08980
C406        C  0.70270488  0.14910113  0.00474321     0.29890
F407        F  0.75612047  0.18789748  0.98063918    -0.19510
H408        H  0.62662509  0.10388651  0.96041809     0.18260
H409        H  0.66018256  0.10733415  0.09565184     0.18260
F410        F  0.55178544  0.99441566  0.07147741    -0.19490
C411        C  0.86266743  0.37153641  0.00621013    -0.20930
C412        C  0.93611096  0.39671291  0.00621451    -0.08970
C413        C  0.95925866  0.35443376  0.02359643     0.29890
C414        C  0.91086052  0.28810267  0.03740104    -0.20930
C415        C  0.83887404  0.26643392  0.04157587    -0.08980
C416        C  0.81559811  0.31047542  0.02619307     0.29890
F417        F  0.74704106  0.29360805  0.02937830    -0.19510
H418        H  0.84162565  0.39995937  0.99163423     0.18260
H419        H  0.93090364  0.25384399  0.04453518     0.18260
F420        F  0.02909495  0.37559084  0.02593434    -0.19490
C421        C  0.92747238  0.18966340  0.10498404    -0.20930
C422        C  0.88059276  0.21540878  0.10861552    -0.08970
C423        C  0.89432365  0.26775914  0.13540064     0.29890
C424        C  0.95089379  0.28911183  0.16028257    -0.20930
C425        C  0.99331968  0.25791513  0.15843752    -0.08980
C426        C  0.98328436  0.21068370  0.12952733     0.29890
F427        F  0.02478680  0.18117741  0.12658029    -0.19510
H428        H  0.91812256  0.14973731  0.08434421     0.18260
H429        H  0.95806110  0.32549813  0.18259175     0.18260
F430        F  0.84954712  0.29315004  0.13959000    -0.19490
C431        C  0.77457346  0.04594383  0.09487880    -0.20930
C432        C  0.76904799  0.10324347  0.10848817    -0.08970
C433        C  0.74060919  0.09870180  0.14419840     0.29890
C434        C  0.72031804  0.03922588  0.16618513    -0.20930
C435        C  0.73119236  0.98479047  0.15375482    -0.08980
C436        C  0.75741723  0.98774234  0.11772848     0.29890
F437        F  0.77032785  0.93655007  0.10559444    -0.19510
H438        H  0.79806257  0.04923084  0.06789783     0.18260
H439        H  0.70140525  0.03827776  0.19415929     0.18260
F440        F  0.73579421  0.15363421  0.15842162    -0.19490
C441        C  0.67120761  0.50699000  0.43689070    -0.20930
C442        C  0.72772454  0.57687102  0.43646913    -0.08970
C443        C  0.71582314  0.62932882  0.45104821     0.29890
C444        C  0.64800942  0.61312416  0.46140693    -0.20930
C445        C  0.59411459  0.54250997  0.46809240    -0.08980
C446        C  0.61021253  0.48941512  0.45771303     0.29890
F447        F  0.57433342  0.42283992  0.47108372    -0.19510
H448        H  0.67784447  0.46506043  0.42515276     0.18260
H449        H  0.64042336  0.65727591  0.46733081     0.18260
F450        F  0.76989012  0.69621589  0.45602258    -0.19490
C451        C  0.91932951  0.60928415  0.43061315    -0.20930
C452        C  0.84542929  0.57189658  0.43663967    -0.08970
C453        C  0.82018199  0.51358878  0.46171635     0.29890
C454        C  0.86556248  0.49218940  0.47657504    -0.20930
C455        C  0.93765095  0.52826091  0.46797508    -0.08980
C456        C  0.96368795  0.58639653  0.44417068     0.29890
F457        F  0.03393849  0.62505031  0.43635324    -0.19510
H458        H  0.94636511  0.65994153  0.41794194     0.18260
H459        H  0.84504489  0.44989550  0.49676744     0.18260
F460        F  0.75369674  0.47953729  0.47531233    -0.19490
C461        C  0.76498938  0.76966135  0.35397393    -0.20930
C462        C  0.72315426  0.73326232  0.32341023    -0.08970
C463        C  0.69910285  0.66084089  0.31907771     0.29890
C464        C  0.72266448  0.62725488  0.34344658    -0.20930
C465        C  0.77052506  0.66580275  0.37203174    -0.08980
C466        C  0.78891235  0.73681274  0.37795469     0.29890
F467        F  0.83606465  0.77734557  0.40441401    -0.19510
H468        H  0.78441983  0.82569193  0.35740136     0.18260
H469        H  0.70908576  0.57321410  0.33786716     0.18260
F470        F  0.66004592  0.62505381  0.28897312    -0.19490
C471        C  0.70538853  0.61651679  0.04155992    -0.20930
C472        C  0.71669269  0.55934464  0.04540455    -0.08970
C473        C  0.67101290  0.49586319  0.02665386     0.29890
C474        C  0.61245786  0.48863940  0.00693346    -0.20930
C475        C  0.59465500  0.54220820  0.00810533    -0.08980
C476        C  0.64297606  0.60684129  0.02571654     0.29890
F477        F  0.62970707  0.66093146  0.02836191    -0.19510
H478        H  0.74214280  0.66733020  0.05375280     0.18260
H479        H  0.58079970  0.44063972  0.99118727     0.18260
F480        F  0.68309298  0.44089739  0.02731793    -0.19490
C481        C  0.85338290  0.58217982  0.00883489    -0.20930
C482        C  0.83028355  0.55404816  0.04445893    -0.08970
C483        C  0.85684617  0.51344285  0.06010342     0.29890
C484        C  0.91175548  0.50899236  0.04279051    -0.20930
C485        C  0.93328895  0.53450593  0.00648770    -0.08980
C486        C  0.90290371  0.57115532  0.98965635     0.29890
F487        F  0.92127144  0.59674916  0.95463055    -0.19510
H488        H  0.83305054  0.61278715  0.99582712     0.18260
H489        H  0.93512932  0.48260597  0.05724330     0.18260
F490        F  0.82802480  0.47617279  0.09163203    -0.19490
C491        C  0.78643540  0.63510002  0.16531552    -0.20930
C492        C  0.75472348  0.60985384  0.13021403    -0.08970
C493        C  0.68996658  0.60869294  0.12474093     0.29890
C494        C  0.67526913  0.65468602  0.14550576    -0.20930
C495        C  0.72101260  0.69555442  0.17428171    -0.08980
C496        C  0.77195488  0.67943497  0.18630052     0.29890
F497        F  0.81026370  0.70905979  0.21763248    -0.19510
H498        H  0.82808008  0.62689563  0.17532422     0.18260
H499        H  0.62916939  0.65867598  0.13896799     0.18260
F500        F  0.63744662  0.55833931  0.10370197    -0.19490
C501        C  0.94029177  0.66594970  0.30814621    -0.20930
C502        C  0.99046948  0.73783828  0.31313955    -0.08970
C503        C  0.98916139  0.77258015  0.34559017     0.29890
C504        C  0.93607697  0.73732382  0.37170607    -0.20930
C505        C  0.88241564  0.66687211  0.36587592    -0.08980
C506        C  0.88593080  0.63057952  0.33434112     0.29890
F507        F  0.83424800  0.56292681  0.32767617    -0.19510
H508        H  0.94039739  0.63883480  0.28292352     0.18260
H509        H  0.93604532  0.76572419  0.39631476     0.18260
F510        F  0.03742455  0.84194311  0.35112842    -0.19490
C511        C  0.91245525  0.61830142  0.13038991    -0.20930
C512        C  0.87761763  0.64415695  0.10827160    -0.08970
C513        C  0.90910935  0.71763469  0.10344580     0.29890
C514        C  0.96823917  0.76393719  0.12440991    -0.20930
C515        C  0.99812776  0.73773011  0.14960767    -0.08980
C516        C  0.97299792  0.66477417  0.15047557     0.29890
F517        F  0.00052421  0.63768235  0.17462890    -0.19510
H518        H  0.88784219  0.56274334  0.13659083     0.18260
H519        H  0.98748684  0.82015740  0.12296414     0.18260
F520        F  0.87662794  0.74444680  0.08260299    -0.19490
C521        C  0.46755797  0.40338835  0.04314315    -0.20930
C522        C  0.45142059  0.40790569  0.00589163    -0.08970
C523        C  0.41825853  0.34616915  0.98433024     0.29890
C524        C  0.39796446  0.28113546  0.00006862    -0.20930
C525        C  0.41367678  0.27527090  0.03716007    -0.08980
C526        C  0.45187450  0.33811695  0.05812881     0.29890
F527        F  0.47534579  0.33683501  0.09272892    -0.19510
H528        H  0.49340258  0.45043966  0.06032512     0.18260
H529        H  0.36852735  0.23637741  0.98255020     0.18260
F530        F  0.40388528  0.34839044  0.94784839    -0.19490
C531        C  0.41460220  0.08514646  0.98414341    -0.20930
C532        C  0.45052811  0.05953899  0.00566212    -0.08970
C533        C  0.46433705  0.08208295  0.04304454     0.29890
C534        C  0.45389174  0.13627787  0.05596478    -0.20930
C535        C  0.41294875  0.15685445  0.03557298    -0.08980
C536        C  0.38881220  0.12580748  0.00032045     0.29890
F537        F  0.33239069  0.12400568  0.98392250    -0.19510
H538        H  0.39740547  0.06521472  0.95624861     0.18260
H539        H  0.47021729  0.15585634  0.08393605     0.18260
F540        F  0.47458674  0.04409302  0.06895528    -0.19490
C541        C  0.36315874  0.10990008  0.13568984    -0.20930
C542        C  0.32874883  0.11431418  0.10378024    -0.08970
C543        C  0.26140452  0.05790097  0.09475682     0.29890
C544        C  0.22608315  0.00176414  0.11943499    -0.20930
C545        C  0.25825507  0.00056864  0.15282312    -0.08980
C546        C  0.32833778  0.05292974  0.16000490     0.29890
F547        F  0.36000123  0.05306919  0.19237361    -0.19510
H548        H  0.41476232  0.15334737  0.14330816     0.18260
H549        H  0.17177829  0.96158148  0.11371618     0.18260
F550        F  0.22702504  0.06078874  0.06412913    -0.19490
C551        C  0.35745320  0.25549836  0.14142252    -0.20930
C552        C  0.32814886  0.22681630  0.10651272    -0.08970
C553        C  0.26367354  0.22141608  0.09635359     0.29890
C554        C  0.22653521  0.23877808  0.12202277    -0.20930
C555        C  0.25420791  0.26326083  0.15763727    -0.08980
C556        C  0.32114747  0.27421332  0.16669898     0.29890
F557        F  0.34823769  0.29657163  0.20122375    -0.19510
H558        H  0.40629788  0.25876898  0.15013268     0.18260
H559        H  0.17451860  0.22955620  0.11485361     0.18260
F560        F  0.23355850  0.19302556  0.06307272    -0.19490
C561        C  0.43945029  0.33024969  0.41546371    -0.20930
C562        C  0.41341037  0.26878181  0.43763355    -0.08970
C563        C  0.40987829  0.27733457  0.47639595     0.29890
C564        C  0.42580843  0.34244613  0.49150802    -0.20930
C565        C  0.44746393  0.40190047  0.46903186    -0.08980
C566        C  0.45355388  0.39529460  0.43062157     0.29890
F567        F  0.47460715  0.45184600  0.40802090    -0.19510
H568        H  0.44917012  0.32842837  0.38618747     0.18260
H569        H  0.42187225  0.34670112  0.52131745     0.18260
F570        F  0.39120942  0.22384099  0.50052895    -0.19490
C571        C  0.38489338  0.05495195  0.48275715    -0.20930
C572        C  0.43605307  0.04185348  0.46611833    -0.08970
C573        C  0.46604796  0.07790651  0.43243375     0.29890
C574        C  0.45613320  0.13302201  0.42051943    -0.20930
C575        C  0.40633890  0.14594094  0.43770095    -0.08980
C576        C  0.36650660  0.10183426  0.46708724     0.29890
F577        F  0.30782504  0.10155846  0.47968859    -0.19510
H578        H  0.35548909  0.02616603  0.50701077     0.18260
H579        H  0.48236302  0.16123121  0.39541175     0.18260
F580        F  0.49449050  0.05363066  0.40744502    -0.19490
C581        C  0.32338451  0.27176668  0.30859682    -0.20930
C582        C  0.26015169  0.26780027  0.31959170    -0.08970
C583        C  0.23420751  0.24574887  0.35571270     0.29890
C584        C  0.26890846  0.22340846  0.37977061    -0.20930
C585        C  0.32864444  0.22125072  0.36755642    -0.08980
C586        C  0.35733160  0.24818899  0.33232844     0.29890
F587        F  0.41574300  0.24759919  0.32010783    -0.19510
H588        H  0.34325763  0.28765907  0.28060911     0.18260
H589        H  0.24593968  0.20231701  0.40669760     0.18260
F590        F  0.17230895  0.24043574  0.36655290    -0.19490
C591        C  0.35804621  0.09339944  0.34225145    -0.20930
C592        C  0.32115539  0.10508493  0.37085355    -0.08970
C593        C  0.24863176  0.05676516  0.37549219     0.29890
C594        C  0.21226026  0.00308802  0.34937967    -0.20930
C595        C  0.24797702  0.99525866  0.31896269    -0.08980
C596        C  0.32182897  0.03826851  0.31661273     0.29890
F597        F  0.35762045  0.03196469  0.28738297    -0.19510
H598        H  0.41367666  0.13057423  0.33781012     0.18260
H599        H  0.15537677  0.97002731  0.35176168     0.18260
F600        F  0.21164916  0.06604824  0.40309184    -0.19490
loop_ 
_geom_bond_atom_site_label_1 
_geom_bond_atom_site_label_2 
_geom_bond_distance 
_geom_bond_site_symmetry_2 
_ccdc_geom_bond_type 
C1            C2   1.369       .  D
C1          C585   1.481       .  S
C1          C592   1.490       .  S
C2          C562   1.520       .  S
C2          C575   1.497       .  S
C3            C4   1.368       .  D
C3          C542   1.484       .  S
C3          C552   1.487       .  S
C4          C525   1.501       .  S
C4          C535   1.501       .  S
O5          Cu13   1.993       .  S
O5           C15   1.277       .  A
O6          Cu13   2.001       .  S
O6           C16   1.277       .  A
O7          Cu13   1.984       .  S
O7           C17   1.275       .  A
O8          Cu13   1.985       .  S
O8           C18   1.275       .  A
O9          Cu14   2.025       .  S
O9           C18   1.278       .  A
O10         Cu14   2.020       .  S
O10          C17   1.278       .  A
O11         Cu14   2.027       .  S
O11          C16   1.279       .  A
O12         Cu14   2.018       .  S
O12          C15   1.279       .  A
Cu13        Cu14   2.377       .  S
C15         C515   1.474   1_455  S
C16         C595   1.474       .  S
C17         C545   1.462   1_565  S
C18         C502   1.464   1_455  S
C19          C20   1.381       .  D
C19         C492   1.537       .  S
C19         C512   1.502       .  S
C20         C472   1.493       .  S
C20         C482   1.503       .  S
C21          C22   1.387       .  D
C21         C465   1.495       .  S
C21         C505   1.486       .  S
C22         C442   1.503       .  S
C22         C452   1.542       .  S
C23          C24   1.387       .  D
C23         C422   1.486       .  S
C23         C432   1.492       .  S
C24         C405   1.521       .  S
C24         C415   1.519       .  S
C25          C26   1.384       .  D
C25         C385   1.484       .  S
C25         C395   1.487       .  S
C26         C362   1.502       .  S
C26         C372   1.539       .  S
O27         Cu35   2.025       .  S
O27          C37   1.279       .  A
O28         Cu35   2.024       .  S
O28          C38   1.278       .  A
O29         Cu35   2.015       .  S
O29          C39   1.277       .  A
O30         Cu35   2.021       .  S
O30          C40   1.278       .  A
O31         Cu36   1.998       .  S
O31          C40   1.276       .  A
O32         Cu36   1.994       .  S
O32          C39   1.276       .  A
O33         Cu36   1.979       .  S
O33          C38   1.275       .  A
O34         Cu36   1.980       .  S
O34          C37   1.274       .  A
Cu35        Cu36   2.379       .  S
C37         C582   1.461       .  S
C38         C425   1.466   1_455  S
C39         C392   1.465   1_455  S
C40         C555   1.466       .  S
O41         Cu49   2.000       .  S
O41          C51   1.276       .  A
O42         Cu49   1.985       .  S
O42          C52   1.276       .  A
O43         Cu49   1.977       .  S
O43          C53   1.276       .  A
O44         Cu49   1.986       .  S
O44          C54   1.274       .  A
O45         Cu50   2.032       .  S
O45          C54   1.280       .  A
O46         Cu50   2.034       .  S
O46          C53   1.279       .  A
O47         Cu50   2.022       .  S
O47          C52   1.278       .  A
O48         Cu50   2.024       .  S
O48          C51   1.279       .  A
Cu49        Cu50   2.376       .  S
C51         C435   1.469       .  S
C52         C462   1.465       .  S
C53         C495   1.475       .  S
C54         C382   1.466   1_565  S
C55          C56   1.378       .  D
C55         C342   1.491       .  S
C55         C352   1.486       .  S
C56         C322   1.509       .  S
C56         C332   1.518       .  S
C57          C58   1.371       .  D
C57         C302   1.490       .  S
C57         C312   1.487       .  S
C58         C282   1.522       .  S
C58         C295   1.506       .  S
C59          C60   1.378       .  D
C59         C262   1.483       .  S
C59         C272   1.497       .  S
C60         C242   1.523       .  S
C60         C252   1.485       .  S
C61          C62   1.383       .  D
C61         C222   1.487       .  S
C61         C232   1.487       .  S
C62         C202   1.513       .  S
C62         C215   1.509       .  S
O63         Cu71   2.026       .  S
O63          C73   1.280       .  A
O64         Cu71   2.025       .  S
O64          C74   1.279       .  A
O65         Cu71   2.015       .  S
O65          C75   1.277       .  A
O66         Cu71   2.014       .  S
O66          C76   1.277       .  A
O67         Cu72   2.005       .  S
O67          C76   1.277       .  A
O68         Cu72   2.002       .  S
O68          C75   1.277       .  A
O69         Cu72   1.991       .  S
O69          C74   1.275       .  A
O70         Cu72   1.992       .  S
O70          C73   1.275       .  A
Cu71        Cu72   2.379       .  S
C73         C305   1.470   1_545  S
C74         C195   1.465       .  S
C75         C355   1.465       .  S
C76         C235   1.465   1_545  S
C77          C78   1.373       .  D
C77         C182   1.487       .  S
C77         C192   1.484       .  S
C78         C165   1.526       .  S
C78         C172   1.496       .  S
C79          C80   1.382       .  D
C79         C142   1.486       .  S
C79         C155   1.486       .  S
C80         C122   1.526       .  S
C80         C135   1.517       .  S
O81         Cu89   2.002       .  S
O81          C91   1.277       .  A
O82         Cu89   1.996       .  S
O82          C92   1.276       .  A
O83         Cu89   1.989       .  S
O83          C93   1.276       .  A
O84         Cu89   1.980       .  S
O84          C94   1.274       .  A
O85         Cu90   2.028       .  S
O85          C94   1.279       .  A
O86         Cu90   2.029       .  S
O86          C93   1.279       .  A
O87         Cu90   2.018       .  S
O87          C92   1.278       .  A
O88         Cu90   2.030       .  S
O88          C91   1.279       .  A
Cu89        Cu90   2.377       .  S
C91         C275   1.471       .  S
C92         C185   1.468       .  S
C93         C345   1.475       .  S
C94         C145   1.462       .  S
O95        Cu103   2.027       .  S
O95         C105   1.279       .  A
O96        Cu103   2.033       .  S
O96         C106   1.279       .  A
O97        Cu103   2.027       .  S
O97         C107   1.279       .  A
O98        Cu103   2.025       .  S
O98         C108   1.279       .  A
O99        Cu104   1.984       .  S
O99         C108   1.276       .  A
O100       Cu104   1.987       .  S
O100        C107   1.275       .  A
O101       Cu104   1.971       .  S
O101        C106   1.274       .  A
O102       Cu104   1.968       .  S
O102        C105   1.274       .  A
Cu103      Cu104   2.378       .  S
C105        C265   1.465       .  S
C106        C225   1.465       .  S
C107        C315   1.464       .  S
C108        C152   1.471       .  S
C109        C110   1.381       .  D
C109        C325   1.515       .  S
C109        C522   1.487   1_556  S
C110        C245   1.490       .  S
C110        C475   1.519   1_556  S
C111        C112   1.386       .  D
C111        C285   1.504   1_655  S
C111        C485   1.511   1_556  S
C112        C335   1.514   1_655  S
C112        C412   1.519   1_556  S
C113        C114   1.396       .  D
C113        C292   1.508       .  S
C113        C532   1.517   1_566  S
C114        C255   1.535       .  S
C114        C402   1.495   1_566  S
C115        C116   1.389       .  D
C115        C132   1.520       .  S
C115        C375   1.486   1_565  S
C116        C205   1.491       .  S
C116        C572   1.533   1_565  S
C117        C118   1.384       .  D
C117        C212   1.509   1_655  S
C117        C455   1.498       .  S
C118        C175   1.511   1_655  S
C118        C365   1.513       .  S
C119        C120   1.381       .  D
C119        C162   1.489       .  S
C119        C565   1.487       .  S
C120        C125   1.516       .  S
C120        C445   1.534       .  S
C121        C122   1.413       .  A
C121        C126   1.393       .  A
C121        H128   1.072       .  S
C122        C123   1.415       .  A
C123        C124   1.404       .  A
C123        F130   1.357       .  S
C124        C125   1.409       .  A
C124        H129   1.080       .  S
C125        C126   1.404       .  A
C126        F127   1.359       .  S
C131        C132   1.403       .  A
C131        C136   1.397       .  A
C131        H138   1.069       .  S
C132        C133   1.416       .  A
C133        C134   1.405       .  A
C133        F140   1.349       .  S
C134        C135   1.406       .  A
C134        H139   1.083       .  S
C135        C136   1.409       .  A
C136        F137   1.354       .  S
C141        C142   1.404       .  A
C141        C146   1.400   1_565  A
C141        H148   1.083       .  S
C142        C143   1.407       .  A
C143        C144   1.393       .  A
C143        F150   1.357       .  S
C144        C145   1.397   1_565  A
C144        H149   1.083       .  S
C145        C146   1.405       .  A
C146        F147   1.358       .  S
C151        C152   1.407       .  A
C151        C156   1.405       .  A
C151        H158   1.083       .  S
C152        C153   1.403       .  A
C153        C154   1.388       .  A
C153        F160   1.358       .  S
C154        C155   1.404       .  A
C154        H159   1.083       .  S
C155        C156   1.406       .  A
C156        F157   1.357       .  S
C161        C162   1.395       .  A
C161        C166   1.395       .  A
C161        H168   1.084       .  S
C162        C163   1.400       .  A
C163        C164   1.400       .  A
C163        F170   1.357       .  S
C164        C165   1.415       .  A
C164        H169   1.076       .  S
C165        C166   1.421       .  A
C166        F167   1.350       .  S
C171        C172   1.406       .  A
C171        C176   1.403       .  A
C171        H178   1.082       .  S
C172        C173   1.402       .  A
C173        C174   1.393       .  A
C173        F180   1.359       .  S
C174        C175   1.411       .  A
C174        H179   1.083       .  S
C175        C176   1.413       .  A
C176        F177   1.357       .  S
C181        C182   1.404       .  A
C181        C186   1.399       .  A
C181        H188   1.083       .  S
C182        C183   1.405       .  A
C183        C184   1.396       .  A
C183        F190   1.357       .  S
C184        C185   1.402   1_455  A
C184        H189   1.084   1_455  S
C185        C186   1.404   1_655  A
C186        F187   1.357       .  S
C191        C192   1.404       .  A
C191        C196   1.400       .  A
C191        H198   1.083       .  S
C192        C193   1.407       .  A
C193        C194   1.396       .  A
C193        F200   1.357       .  S
C194        C195   1.399       .  A
C194        H199   1.084       .  S
C195        C196   1.404       .  A
C196        F197   1.358       .  S
C201        C202   1.408       .  A
C201        C206   1.391       .  A
C201        H208   1.077       .  S
C202        C203   1.418       .  A
C203        C204   1.401       .  A
C203        F210   1.357       .  S
C204        C205   1.400       .  A
C204        H209   1.083       .  S
C205        C206   1.403       .  A
C206        F207   1.357       .  S
C211        C212   1.410       .  A
C211        C216   1.407       .  A
C211        H218   1.082       .  S
C212        C213   1.411       .  A
C213        C214   1.383       .  A
C213        F220   1.358   1_455  S
C214        C215   1.400       .  A
C214        H219   1.076       .  S
C215        C216   1.414       .  A
C216        F217   1.357       .  S
C221        C222   1.405       .  A
C221        C226   1.405       .  A
C221        H228   1.083       .  S
C222        C223   1.406       .  A
C223        C224   1.387   1_455  A
C223        F230   1.357       .  S
C224        C225   1.398       .  A
C224        H229   1.084       .  S
C225        C226   1.406   1_655  A
C226        F227   1.357       .  S
C231        C232   1.406       .  A
C231        C236   1.394       .  A
C231        H238   1.083       .  S
C232        C233   1.407       .  A
C233        C234   1.402       .  A
C233        F240   1.357       .  S
C234        C235   1.404       .  A
C234        H239   1.083   1_565  S
C235        C236   1.400       .  A
C236        F237   1.358       .  S
C241        C242   1.411       .  A
C241        C246   1.390       .  A
C241        H248   1.070       .  S
C242        C243   1.424       .  A
C243        C244   1.393       .  A
C243        F250   1.348       .  S
C244        C245   1.397       .  A
C244        H249   1.083       .  S
C245        C246   1.401       .  A
C246        F247   1.358       .  S
C251        C252   1.400       .  A
C251        C256   1.400       .  A
C251        H258   1.083       .  S
C252        C253   1.396       .  A
C253        C254   1.392       .  A
C253        F260   1.357       .  S
C254        C255   1.423       .  A
C254        H259   1.079       .  S
C255        C256   1.411       .  A
C256        F257   1.355       .  S
C261        C262   1.405       .  A
C261        C266   1.404       .  A
C261        H268   1.083       .  S
C262        C263   1.406       .  A
C263        C264   1.386       .  A
C263        F270   1.355       .  S
C264        C265   1.398       .  A
C264        H269   1.084       .  S
C265        C266   1.407       .  A
C266        F267   1.357       .  S
C271        C272   1.408       .  A
C271        C276   1.402       .  A
C271        H278   1.083       .  S
C272        C273   1.412       .  A
C273        C274   1.398   1_565  A
C273        F280   1.352       .  S
C274        C275   1.398       .  A
C274        H279   1.084       .  S
C275        C276   1.403   1_545  A
C276        F277   1.357       .  S
C281        C282   1.411       .  A
C281        C286   1.395       .  A
C281        H288   1.069       .  S
C282        C283   1.416       .  A
C283        C284   1.406       .  A
C283        F290   1.355       .  S
C284        C285   1.406       .  A
C284        H289   1.083       .  S
C285        C286   1.402       .  A
C286        F287   1.358   1_556  S
C291        C292   1.408       .  A
C291        C296   1.406       .  A
C291        H298   1.083       .  S
C292        C293   1.412       .  A
C293        C294   1.395       .  A
C293        F300   1.358   1_556  S
C294        C295   1.402       .  A
C294        H299   1.079       .  S
C295        C296   1.411       .  A
C296        F297   1.354       .  S
C301        C302   1.404       .  A
C301        C306   1.398       .  A
C301        H308   1.083       .  S
C302        C303   1.409       .  A
C303        C304   1.399       .  A
C303        F310   1.355       .  S
C304        C305   1.400       .  A
C304        H309   1.083       .  S
C305        C306   1.405       .  A
C306        F307   1.358   1_565  S
C311        C312   1.404       .  A
C311        C316   1.400   1_455  A
C311        H318   1.083       .  S
C312        C313   1.407       .  A
C313        C314   1.396       .  A
C313        F320   1.356       .  S
C314        C315   1.399   1_455  A
C314        H319   1.084       .  S
C315        C316   1.404       .  A
C316        F317   1.358       .  S
C321        C322   1.404       .  A
C321        C326   1.401       .  A
C321        H328   1.083       .  S
C322        C323   1.412       .  A
C323        C324   1.405       .  A
C323        F330   1.356       .  S
C324        C325   1.408       .  A
C324        H329   1.082       .  S
C325        C326   1.413       .  A
C326        F327   1.358   1_556  S
C331        C332   1.408       .  A
C331        C336   1.391       .  A
C331        H338   1.075       .  S
C332        C333   1.414       .  A
C333        C334   1.407       .  A
C333        F340   1.357       .  S
C334        C335   1.411       .  A
C334        H339   1.081       .  S
C335        C336   1.407       .  A
C336        F337   1.359   1_455  S
C341        C342   1.405       .  A
C341        C346   1.389       .  A
C341        H348   1.083       .  S
C342        C343   1.406       .  A
C343        C344   1.407       .  A
C343        F350   1.357       .  S
C344        C345   1.408   1_455  A
C344        H349   1.083       .  S
C345        C346   1.403   1_655  A
C346        F347   1.358   1_455  S
C351        C352   1.405       .  A
C351        C356   1.400       .  A
C351        H358   1.083       .  S
C352        C353   1.407       .  A
C353        C354   1.395       .  A
C353        F360   1.357       .  S
C354        C355   1.399       .  A
C354        H359   1.084       .  S
C355        C356   1.404       .  A
C356        F357   1.357       .  S
C361        C362   1.404       .  A
C361        C366   1.398       .  A
C361        H368   1.080       .  S
C362        C363   1.406       .  A
C363        C364   1.398       .  A
C363        F370   1.358       .  S
C364        C365   1.411       .  A
C364        H369   1.083       .  S
C365        C366   1.412       .  A
C366        F367   1.356       .  S
C371        C372   1.413       .  A
C371        C376   1.387       .  A
C371        H378   1.064       .  S
C372        C373   1.427       .  A
C373        C374   1.405       .  A
C373        F380   1.354       .  S
C374        C375   1.398       .  A
C374        H379   1.083       .  S
C375        C376   1.397       .  A
C376        F377   1.358   1_545  S
C381        C382   1.400       .  A
C381        C386   1.399       .  A
C381        H388   1.083       .  S
C382        C383   1.405       .  A
C383        C384   1.397       .  A
C383        F390   1.358   1_545  S
C384        C385   1.403       .  A
C384        H389   1.083       .  S
C385        C386   1.409       .  A
C386        F387   1.356       .  S
C391        C392   1.400       .  A
C391        C396   1.397       .  A
C391        H398   1.083       .  S
C392        C393   1.404       .  A
C393        C394   1.395       .  A
C393        F400   1.357   1_655  S
C394        C395   1.403       .  A
C394        H399   1.083       .  S
C395        C396   1.408       .  A
C396        F397   1.356       .  S
C401        C402   1.406   1_556  A
C401        C406   1.406   1_556  A
C401        H408   1.083       .  S
C402        C403   1.399       .  A
C403        C404   1.389       .  A
C403        F410   1.359   1_545  S
C404        C405   1.408       .  A
C404        H409   1.073       .  S
C405        C406   1.419       .  A
C406        F407   1.357   1_554  S
C411        C412   1.412       .  A
C411        C416   1.408       .  A
C411        H418   1.082   1_554  S
C412        C413   1.410       .  A
C413        C414   1.390       .  A
C413        F420   1.358   1_655  S
C414        C415   1.406       .  A
C414        H419   1.076       .  S
C415        C416   1.415       .  A
C416        F417   1.357       .  S
C421        C422   1.404       .  A
C421        C426   1.386       .  A
C421        H428   1.083       .  S
C422        C423   1.406       .  A
C423        C424   1.405       .  A
C423        F430   1.357       .  S
C424        C425   1.405       .  A
C424        H429   1.083       .  S
C425        C426   1.401       .  A
C426        F427   1.358   1_655  S
C431        C432   1.406       .  A
C431        C436   1.403   1_545  A
C431        H438   1.083       .  S
C432        C433   1.408       .  A
C433        C434   1.395       .  A
C433        F440   1.357       .  S
C434        C435   1.400   1_545  A
C434        H439   1.084       .  S
C435        C436   1.405       .  A
C436        F437   1.357       .  S
C441        C442   1.401       .  A
C441        C446   1.404       .  A
C441        H448   1.083       .  S
C442        C443   1.399       .  A
C443        C444   1.391       .  A
C443        F450   1.352       .  S
C444        C445   1.415       .  A
C444        H449   1.081       .  S
C445        C446   1.423       .  A
C446        F447   1.351       .  S
C451        C452   1.413       .  A
C451        C456   1.389       .  A
C451        H458   1.063       .  S
C452        C453   1.431       .  A
C453        C454   1.403       .  A
C453        F460   1.348       .  S
C454        C455   1.397       .  A
C454        H459   1.083       .  S
C455        C456   1.399       .  A
C456        F457   1.359   1_655  S
C461        C462   1.395       .  A
C461        C466   1.388       .  A
C461        H468   1.084       .  S
C462        C463   1.405       .  A
C463        C464   1.404       .  A
C463        F470   1.357       .  S
C464        C465   1.406       .  A
C464        H469   1.083       .  S
C465        C466   1.412       .  A
C466        F467   1.355       .  S
C471        C472   1.401       .  A
C471        C476   1.396       .  A
C471        H478   1.083       .  S
C472        C473   1.408       .  A
C473        C474   1.405       .  A
C473        F480   1.357       .  S
C474        C475   1.411       .  A
C474        H479   1.081   1_554  S
C475        C476   1.418       .  A
C476        F477   1.358       .  S
C481        C482   1.403       .  A
C481        C486   1.402   1_554  A
C481        H488   1.083   1_554  S
C482        C483   1.406       .  A
C483        C484   1.398       .  A
C483        F490   1.356       .  S
C484        C485   1.407       .  A
C484        H489   1.082       .  S
C485        C486   1.415   1_554  A
C486        F487   1.357       .  S
C491        C492   1.413       .  A
C491        C496   1.384       .  A
C491        H498   1.078       .  S
C492        C493   1.419       .  A
C493        C494   1.412       .  A
C493        F500   1.353       .  S
C494        C495   1.404       .  A
C494        H499   1.083       .  S
C495        C496   1.399       .  A
C496        F497   1.359       .  S
C501        C502   1.404       .  A
C501        C506   1.405       .  A
C501        H508   1.083       .  S
C502        C503   1.399       .  A
C503        C504   1.387       .  A
C503        F510   1.358   1_655  S
C504        C505   1.405       .  A
C504        H509   1.080       .  S
C505        C506   1.406       .  A
C506        F507   1.357       .  S
C511        C512   1.408       .  A
C511        C516   1.398       .  A
C511        H518   1.078       .  S
C512        C513   1.407       .  A
C513        C514   1.396       .  A
C513        F520   1.358       .  S
C514        C515   1.403       .  A
C514        H519   1.084       .  S
C515        C516   1.404       .  A
C516        F517   1.357   1_655  S
C521        C522   1.405       .  A
C521        C526   1.402       .  A
C521        H528   1.083       .  S
C522        C523   1.400   1_554  A
C523        C524   1.384   1_556  A
C523        F530   1.359       .  S
C524        C525   1.403       .  A
C524        H529   1.065   1_554  S
C525        C526   1.413       .  A
C526        F527   1.355       .  S
C531        C532   1.410   1_556  A
C531        C536   1.397   1_556  A
C531        H538   1.083       .  S
C532        C533   1.411       .  A
C533        C534   1.395       .  A
C533        F540   1.346       .  S
C534        C535   1.401       .  A
C534        H539   1.081       .  S
C535        C536   1.409       .  A
C536        F537   1.353   1_554  S
C541        C542   1.406       .  A
C541        C546   1.397       .  A
C541        H548   1.083       .  S
C542        C543   1.403       .  A
C543        C544   1.395       .  A
C543        F550   1.357       .  S
C544        C545   1.402       .  A
C544        H549   1.084   1_545  S
C545        C546   1.400       .  A
C546        F547   1.357       .  S
C551        C552   1.406       .  A
C551        C556   1.395       .  A
C551        H558   1.082       .  S
C552        C553   1.405       .  A
C553        C554   1.401       .  A
C553        F560   1.357       .  S
C554        C555   1.403       .  A
C554        H559   1.083       .  S
C555        C556   1.400       .  A
C556        F557   1.357       .  S
C561        C562   1.417       .  A
C561        C566   1.404       .  A
C561        H568   1.079       .  S
C562        C563   1.414       .  A
C563        C564   1.394       .  A
C563        F570   1.349       .  S
C564        C565   1.401       .  A
C564        H569   1.084       .  S
C565        C566   1.402       .  A
C566        F567   1.357       .  S
C571        C572   1.419       .  A
C571        C576   1.400       .  A
C571        H578   1.080       .  S
C572        C573   1.417       .  A
C573        C574   1.400       .  A
C573        F580   1.343       .  S
C574        C575   1.398       .  A
C574        H579   1.083       .  S
C575        C576   1.403       .  A
C576        F577   1.358       .  S
C581        C582   1.398       .  A
C581        C586   1.395       .  A
C581        H588   1.083       .  S
C582        C583   1.404       .  A
C583        C584   1.397       .  A
C583        F590   1.356       .  S
C584        C585   1.401       .  A
C584        H589   1.083       .  S
C585        C586   1.407       .  A
C586        F587   1.357       .  S
C591        C592   1.406       .  A
C591        C596   1.402       .  A
C591        H598   1.082       .  S
C592        C593   1.405       .  A
C593        C594   1.396       .  A
C593        F600   1.357       .  S
C594        C595   1.402   1_545  A
C594        H599   1.083   1_545  S
C595        C596   1.404   1_565  A
C596        F597   1.357       .  S
