geometry optimzed in LAMMPS
_audit_creation_date              2020-11-30 
_audit_creation_method            'lammps2cif' 
_symmetry_space_group_name_H-M    'P1' 
_symmetry_Int_Tables_number       1 
_symmetry_cell_setting            triclinic 
loop_ 
_symmetry_equiv_pos_as_xyz 
  x,y,z 
_cell_length_a                    35.49040145175595 
_cell_length_b                    35.61840812665312 
_cell_length_c                    20.11524601330399 
_cell_angle_alpha                 90.01712464541029 
_cell_angle_beta                  89.949191054276 
_cell_angle_gamma                 120.33052050822116 
loop_ 
_atom_site_label 
_atom_site_type_symbol 
_atom_site_fract_x 
_atom_site_fract_y 
_atom_site_fract_z 
_atom_site_charge 
C1          C  0.39123999  0.24174646  0.99605851    -0.01500
C2          C  0.35139497  0.23884514  0.33294553    -0.01510
C3          C  0.23324345  0.08307295  0.33516739    -0.01500
C4          C  0.23259926  0.12051861  0.32785771    -0.01510
C5          C  0.35054568  0.08657087  0.32713389    -0.01500
C6          C  0.38886181  0.12502219  0.00472893    -0.01510
C7          C  0.24584930  0.37819636  0.32773039    -0.01500
C8          C  0.24764108  0.34054128  0.33300111    -0.01510
C9          C  0.09659733  0.22960596  0.00409706    -0.01500
C10         C  0.13234597  0.22548112  0.32795245    -0.01510
C11         C  0.09287180  0.34440761  0.99601222    -0.01500
C12         C  0.13043579  0.38313170  0.33560257    -0.01510
O13         O  0.45456498  0.18257252  0.29116366    -0.82210
O14         O  0.04093739  0.20685645  0.08936484    -0.82230
O15         O  0.38128674  0.14916275  0.11196703    -0.82240
O16         O  0.09168431  0.26279172  0.23466766    -0.82180
O17         O  0.44542735  0.15786495  0.08930808    -0.82300
O18         O  0.03235331  0.22195061  0.28867827    -0.82220
O19         O  0.10522565  0.26359086  0.10969876    -0.82210
O20         O  0.39617193  0.16502902  0.23621060    -0.82240
C21         C  0.41442123  0.15696797  0.28367089     1.07480
C22         C  0.08124014  0.23175978  0.07205994     1.07370
C23         C  0.40482675  0.14158964  0.07322375     1.07510
C24         C  0.07254297  0.23664703  0.28213792     1.07380
O25         O  0.03413545  0.30967585  0.25649618    -0.82210
O26         O  0.44954580  0.23542839  0.03803814    -0.82280
O27         O  0.39601597  0.20830665  0.22707310    -0.82220
O28         O  0.07969831  0.31966831  0.11284998    -0.82200
O29         O  0.03520723  0.27881797  0.03691815    -0.82250
O30         O  0.45197661  0.26836267  0.25924199    -0.82220
O31         O  0.09148011  0.30804625  0.22630886    -0.82180
O32         O  0.40461747  0.23046859  0.11374399    -0.82250
Co33       Co  0.49327402  0.24662991  0.26946775     1.51530
Co34       Co  0.49280807  0.22116031  0.07273345     1.51690
Co35       Co  0.43003825  0.19691167  0.15431130     1.51570
Co36       Co  0.05680302  0.26156203  0.15452737     1.51470
O37         O  0.49308340  0.24462043  0.17135824    -1.44140
C38         C  0.07403582  0.32421643  0.26342543     1.07410
C39         C  0.41646744  0.23777445  0.05393485     1.07500
C40         C  0.41208487  0.24199363  0.26439537     1.07440
C41         C  0.06779693  0.31463971  0.05307238     1.07410
O42         O  0.23034911  0.18012237  0.03449749    -0.82210
O43         O  0.15902423  0.19229177  0.25246883    -0.82230
O44         O  0.26062373  0.15230719  0.22131846    -0.82240
O45         O  0.17086859  0.25340223  0.10261328    -0.82180
O46         O  0.20154919  0.14905971  0.25207620    -0.82300
O47         O  0.19014697  0.21885708  0.03435495    -0.82220
O48         O  0.16412378  0.25164347  0.22063845    -0.82210
O49         O  0.26204125  0.15767220  0.10366956    -0.82240
C50         C  0.24014160  0.15224385  0.05001437     1.07480
C51         C  0.14751267  0.22010051  0.26008671     1.07370
C52         C  0.22872835  0.13680616  0.26039665     1.07510
C53         C  0.16387386  0.23087534  0.04944929     1.07380
O54         O  0.27089798  0.30352492  0.07387402    -0.82210
O55         O  0.28628583  0.22994060  0.28261276    -0.82280
O56         O  0.31587267  0.20381206  0.10098639    -0.82220
O57         O  0.23258779  0.31934756  0.21694196    -0.82200
O58         O  0.24077854  0.27560948  0.28451774    -0.82250
O59         O  0.31373636  0.26048666  0.07488272    -0.82220
O60         O  0.21466253  0.30586226  0.10265768    -0.82180
O61         O  0.32948330  0.21784190  0.21825624    -0.82250
Co62       Co  0.25003443  0.23952833  0.06041223     1.51530
Co63       Co  0.22237911  0.21211722  0.25801161     1.51690
Co64       Co  0.27896956  0.20805801  0.17158642     1.51570
Co65       Co  0.22020469  0.26850829  0.17102020     1.51470
O66         O  0.22679223  0.21601206  0.15366929    -1.44140
C67         C  0.24671448  0.31960166  0.06422119     1.07410
C68         C  0.32260684  0.23044402  0.27349837     1.07500
C69         C  0.32945725  0.23627323  0.06373168     1.07440
C70         C  0.24219332  0.31204220  0.27399551     1.07410
O71         O  0.29327090  0.02096996  0.04145514    -0.82210
O72         O  0.26828979  0.43441994  0.24330488    -0.82230
O73         O  0.32635412  0.09399464  0.22004371    -0.82240
O74         O  0.21567928  0.38406562  0.10103931    -0.82180
O75         O  0.31778476  0.03005697  0.24265065    -0.82300
O76         O  0.25176597  0.44202029  0.04163733    -0.82220
O77         O  0.20831323  0.37194439  0.22650954    -0.82090
O78         O  0.31035688  0.07945451  0.09533813    -0.82240
C79         C  0.31854657  0.06114714  0.04822559     1.07480
C80         C  0.24224645  0.39462576  0.26129483     1.07370
C81         C  0.33397991  0.07054739  0.25872415     1.07510
C82         C  0.23934841  0.40247480  0.05086171     1.07380
O83         O  0.16549373  0.44188765  0.07483844    -0.82210
O84         O  0.23998263  0.02518870  0.29465911    -0.82280
O85         O  0.26745706  0.08075596  0.10525617    -0.82220
O86         O  0.15369909  0.39802670  0.21824909    -0.82200
O87         O  0.19622538  0.44038115  0.29453779    -0.82250
O88         O  0.20762794  0.02420168  0.07437304    -0.82220
O89         O  0.16611030  0.38442932  0.10596520    -0.82180
O90         O  0.24398595  0.06908982  0.21826888    -0.82250
Co91       Co  0.22877239  0.48243088  0.06233791     1.51530
Co92       Co  0.25424435  0.48259059  0.25895201     1.51690
Co93       Co  0.27877131  0.04564219  0.17705646     1.51570
Co94       Co  0.21195440  0.41907208  0.17753580     1.51470
O95         O  0.23112364  0.48278670  0.16011217    -1.44140
C96         C  0.15081749  0.40206864  0.06798991     1.07410
C97         C  0.23709089  0.05759150  0.27821641     1.07500
C98         C  0.23359991  0.06403219  0.06804482     1.07440
C99         C  0.15960766  0.40888504  0.27843034     1.07410
C100        C  0.39123944  0.24174595  0.32939131    -0.01500
C101        C  0.35139547  0.23884608  0.66627942    -0.01510
C102        C  0.23324408  0.08307389  0.66850119    -0.01500
C103        C  0.23259974  0.12051938  0.66119081    -0.01510
C104        C  0.35054542  0.08657092  0.66046771    -0.01500
C105        C  0.38886194  0.12502248  0.33806216    -0.01510
C106        C  0.24585200  0.37819773  0.66106379    -0.01500
C107        C  0.24764352  0.34054247  0.66633475    -0.01510
C108        C  0.09659738  0.22960662  0.33743083    -0.01500
C109        C  0.13234642  0.22548181  0.66128552    -0.01510
C110        C  0.09287159  0.34440792  0.32934550    -0.01500
C111        C  0.13043577  0.38313100  0.66893498    -0.01510
O112        O  0.45456476  0.18257208  0.62449657    -0.82210
O113        O  0.04093714  0.20685698  0.42269812    -0.82230
O114        O  0.38128655  0.14916241  0.44530072    -0.82240
O115        O  0.09168399  0.26279157  0.56800075    -0.82180
O116        O  0.44542744  0.15786541  0.42264137    -0.82300
O117        O  0.03235300  0.22195010  0.62201102    -0.82220
O118        O  0.10522548  0.26359114  0.44303265    -0.82210
O119        O  0.39617152  0.16502916  0.56954444    -0.82240
C120        C  0.41442091  0.15696783  0.61700431     1.07480
C121        C  0.08123996  0.23176031  0.40539351     1.07370
C122        C  0.40482679  0.14158980  0.40655710     1.07510
C123        C  0.07254273  0.23664674  0.61547089     1.07380
O124        O  0.03413527  0.30967569  0.58982975    -0.82210
O125        O  0.44954557  0.23542872  0.37137147    -0.82280
O126        O  0.39601572  0.20830665  0.56040700    -0.82220
O127        O  0.07969802  0.31966838  0.44618309    -0.82200
O128        O  0.03520660  0.27881838  0.37025124    -0.82250
O129        O  0.45197658  0.26836253  0.59257559    -0.82220
O130        O  0.09147973  0.30804594  0.55964207    -0.82180
O131        O  0.40461667  0.23046800  0.44707698    -0.82250
Co132      Co  0.49327377  0.24662955  0.60280115     1.51530
Co133      Co  0.49280794  0.22116086  0.40606672     1.51690
Co134      Co  0.43003787  0.19691158  0.48764497     1.51570
Co135      Co  0.05680257  0.26156209  0.48786060     1.51470
O136        O  0.49308306  0.24462050  0.50469161    -1.44140
C137        C  0.07403557  0.32421613  0.59675875     1.07410
C138        C  0.41646689  0.23777422  0.38726794     1.07500
C139        C  0.41208486  0.24199371  0.59772917     1.07440
C140        C  0.06779653  0.31463997  0.38640554     1.07410
O141        O  0.23034653  0.18012023  0.36783297    -0.82210
O142        O  0.15902448  0.19229267  0.58580141    -0.82230
O143        O  0.26062453  0.15230853  0.55465216    -0.82240
O144        O  0.17087009  0.25340447  0.43594600    -0.82180
O145        O  0.20154931  0.14905999  0.58540927    -0.82300
O146        O  0.19014511  0.21885523  0.36769037    -0.82220
O147        O  0.16412654  0.25164607  0.55397356    -0.82210
O148        O  0.26204432  0.15767433  0.43700154    -0.82240
C149        C  0.24014185  0.15224356  0.38334846     1.07480
C150        C  0.14751377  0.22010205  0.59341991     1.07370
C151        C  0.22872876  0.13680678  0.59372970     1.07510
C152        C  0.16387362  0.23087571  0.38278351     1.07380
O153        O  0.27089713  0.30352404  0.40720505    -0.82210
O154        O  0.28628583  0.22994050  0.61594671    -0.82280
O155        O  0.31587199  0.20381168  0.43431917    -0.82220
O156        O  0.23259410  0.31935072  0.55027424    -0.82200
O157        O  0.24077863  0.27560963  0.61785164    -0.82250
O158        O  0.31373533  0.26048589  0.40821386    -0.82220
O159        O  0.21466277  0.30586286  0.43599129    -0.82180
O160        O  0.32948521  0.21784534  0.55158903    -0.82250
Co161      Co  0.25003294  0.23952694  0.39374531     1.51530
Co162      Co  0.22237916  0.21211744  0.59134545     1.51690
Co163      Co  0.27897056  0.20805950  0.50492011     1.51570
Co164      Co  0.22020652  0.26850968  0.50435287     1.51470
O165        O  0.22679261  0.21601248  0.48700352    -1.44140
C166        C  0.24671402  0.31960144  0.39755353     1.07410
C167        C  0.32260764  0.23044556  0.60683204     1.07500
C168        C  0.32945658  0.23627265  0.39706392     1.07440
C169        C  0.24219652  0.31204374  0.60732895     1.07410
O170        O  0.29327165  0.02096987  0.37478782    -0.82210
O171        O  0.26829075  0.43442114  0.57663825    -0.82230
O172        O  0.32635435  0.09399443  0.55337682    -0.82240
O173        O  0.21567271  0.38406360  0.43436878    -0.82180
O174        O  0.31778429  0.03005685  0.57598577    -0.82300
O175        O  0.25176757  0.44202010  0.37497374    -0.82220
O176        O  0.20831567  0.37194466  0.55984212    -0.82090
O177        O  0.31035684  0.07945408  0.42867151    -0.82240
C178        C  0.31854678  0.06114711  0.38155860     1.07480
C179        C  0.24224843  0.39462674  0.59462799     1.07370
C180        C  0.33397962  0.07054730  0.59205828     1.07510
C181        C  0.23934619  0.40247340  0.38419482     1.07380
O182        O  0.16549410  0.44188768  0.40817222    -0.82210
O183        O  0.23998080  0.02518800  0.62799368    -0.82280
O184        O  0.26745607  0.08075463  0.43859013    -0.82220
O185        O  0.15369963  0.39802472  0.55158133    -0.82200
O186        O  0.19622457  0.44038106  0.62786962    -0.82250
O187        O  0.20762781  0.02419970  0.40770360    -0.82220
O188        O  0.16611124  0.38442948  0.43929832    -0.82180
O189        O  0.24398701  0.06909021  0.55160314    -0.82250
Co190      Co  0.22877298  0.48243068  0.39567135     1.51530
Co191      Co  0.25424383  0.48259087  0.59228520     1.51690
Co192      Co  0.27877152  0.04564167  0.51038999     1.51570
Co193      Co  0.21195587  0.41907253  0.51086955     1.51470
O194        O  0.23112326  0.48278672  0.49344551    -1.44140
C195        C  0.15081759  0.40206862  0.40132379     1.07410
C196        C  0.23709080  0.05759167  0.61155062     1.07500
C197        C  0.23359933  0.06403069  0.40137781     1.07440
C198        C  0.15960749  0.40888398  0.61176233     1.07410
C199        C  0.39123969  0.24174635  0.66272516    -0.01500
C200        C  0.35139572  0.23884614  0.99961299    -0.01510
C201        C  0.23324351  0.08307352  0.00183374    -0.01500
C202        C  0.23259883  0.12051887  0.99452368    -0.01510
C203        C  0.35054562  0.08657053  0.99380090    -0.01500
C204        C  0.38886174  0.12502243  0.67139572    -0.01510
C205        C  0.24585121  0.37819745  0.99439747    -0.01500
C206        C  0.24764260  0.34054213  0.99966852    -0.01510
C207        C  0.09659728  0.22960644  0.67076385    -0.01500
C208        C  0.13234611  0.22548078  0.99461839    -0.01510
C209        C  0.09287147  0.34440744  0.66267855    -0.01500
C210        C  0.13043577  0.38313151  0.00226890    -0.01510
O211        O  0.45456474  0.18257192  0.95782992    -0.82210
O212        O  0.04093700  0.20685654  0.75603126    -0.82230
O213        O  0.38128660  0.14916274  0.77863395    -0.82240
O214        O  0.09168405  0.26279118  0.90133408    -0.82180
O215        O  0.44542729  0.15786509  0.75597478    -0.82300
O216        O  0.03235312  0.22195007  0.95534478    -0.82220
O217        O  0.10522534  0.26359073  0.77636581    -0.82210
O218        O  0.39617155  0.16502900  0.90287766    -0.82240
C219        C  0.41442092  0.15696764  0.95033755     1.07480
C220        C  0.08123982  0.23175992  0.73872661     1.07370
C221        C  0.40482668  0.14158977  0.73989054     1.07510
C222        C  0.07254279  0.23664645  0.94880432     1.07380
O223        O  0.03413557  0.30967569  0.92316348    -0.82210
O224        O  0.44954543  0.23542832  0.70470498    -0.82280
O225        O  0.39601589  0.20830666  0.89374039    -0.82220
O226        O  0.07969803  0.31966813  0.77951633    -0.82200
O227        O  0.03520666  0.27881794  0.70358459    -0.82250
O228        O  0.45197681  0.26836252  0.92590871    -0.82220
O229        O  0.09147999  0.30804586  0.89297565    -0.82180
O230        O  0.40461709  0.23046848  0.78041081    -0.82250
Co231      Co  0.49327381  0.24662929  0.93613433     1.51530
Co232      Co  0.49280785  0.22116045  0.73940001     1.51690
Co233      Co  0.43003795  0.19691160  0.82097828     1.51570
Co234      Co  0.05680270  0.26156193  0.82119409     1.51470
O235        O  0.49308319  0.24462016  0.83802491    -1.44140
C236        C  0.07403590  0.32421612  0.93009237     1.07410
C237        C  0.41646707  0.23777435  0.72060165     1.07500
C238        C  0.41208508  0.24199375  0.93106245     1.07440
C239        C  0.06779652  0.31463960  0.71973877     1.07410
O240        O  0.23034690  0.18012093  0.70116607    -0.82210
O241        O  0.15902483  0.19229252  0.91913396    -0.82230
O242        O  0.26062442  0.15230838  0.88798541    -0.82240
O243        O  0.17087038  0.25340501  0.76927923    -0.82180
O244        O  0.20154945  0.14906036  0.91874196    -0.82300
O245        O  0.19014562  0.21885595  0.70102357    -0.82220
O246        O  0.16412560  0.25164523  0.88730604    -0.82210
O247        O  0.26204454  0.15767485  0.77033469    -0.82240
C248        C  0.24014223  0.15224428  0.71668149     1.07480
C249        C  0.14751344  0.22010133  0.92675258     1.07370
C250        C  0.22872849  0.13680670  0.92706258     1.07510
C251        C  0.16387399  0.23087629  0.71611669     1.07380
O252        O  0.27089816  0.30352455  0.74053949    -0.82210
O253        O  0.28628650  0.22994141  0.94927979    -0.82280
O254        O  0.31587219  0.20381210  0.76765266    -0.82220
O255        O  0.23259154  0.31934988  0.88360842    -0.82200
O256        O  0.24077920  0.27561016  0.95118463    -0.82250
O257        O  0.31373575  0.26048646  0.74154799    -0.82220
O258        O  0.21466337  0.30586290  0.76932387    -0.82180
O259        O  0.32948491  0.21784435  0.88492295    -0.82250
Co260      Co  0.25003354  0.23952760  0.72707873     1.51530
Co261      Co  0.22237963  0.21211789  0.92467817     1.51690
Co262      Co  0.27897067  0.20805957  0.83825391     1.51570
Co263      Co  0.22020627  0.26850974  0.83768692     1.51470
O264        O  0.22679298  0.21601294  0.82033633    -1.44140
C265        C  0.24671524  0.31960199  0.73088722     1.07410
C266        C  0.32260784  0.23044550  0.94016551     1.07500
C267        C  0.32945698  0.23627327  0.73039780     1.07440
C268        C  0.24219543  0.31204352  0.94066253     1.07410
O269        O  0.29327031  0.02097030  0.70812159    -0.82210
O270        O  0.26829017  0.43442048  0.90997104    -0.82230
O271        O  0.32635386  0.09399432  0.88671121    -0.82240
O272        O  0.21568087  0.38406580  0.76770656    -0.82180
O273        O  0.31778452  0.03005656  0.90931802    -0.82300
O274        O  0.25176522  0.44202014  0.70830290    -0.82220
O275        O  0.20831393  0.37194453  0.89317692    -0.82090
O276        O  0.31035717  0.07945468  0.76200550    -0.82240
C277        C  0.31854645  0.06114737  0.71489245     1.07480
C278        C  0.24224738  0.39462633  0.92796166     1.07370
C279        C  0.33397975  0.07054703  0.92539137     1.07510
C280        C  0.23934891  0.40247497  0.71752805     1.07380
O281        O  0.16549330  0.44188718  0.74150460    -0.82210
O282        O  0.23998235  0.02518893  0.96132596    -0.82280
O283        O  0.26745782  0.08075664  0.77192353    -0.82220
O284        O  0.15369895  0.39802594  0.88491543    -0.82200
O285        O  0.19622500  0.44038104  0.96120361    -0.82250
O286        O  0.20762806  0.02420282  0.74104276    -0.82220
O287        O  0.16611015  0.38442896  0.77263164    -0.82180
O288        O  0.24398573  0.06908976  0.88493535    -0.82250
Co289      Co  0.22877182  0.48243079  0.72900404     1.51530
Co290      Co  0.25424398  0.48259063  0.92561809     1.51690
Co291      Co  0.27877136  0.04564211  0.84372345     1.51570
Co292      Co  0.21195428  0.41907177  0.84420211     1.51470
O293        O  0.23112307  0.48278635  0.82677831    -1.44140
C294        C  0.15081741  0.40206820  0.73465604     1.07410
C295        C  0.23709073  0.05759173  0.94488302     1.07500
C296        C  0.23360045  0.06403304  0.73471280     1.07440
C297        C  0.15960744  0.40888466  0.94509648     1.07410
C298        C  0.39123945  0.74174532  0.99605783    -0.01500
C299        C  0.35139450  0.73884482  0.33294470    -0.01510
C300        C  0.23324555  0.58307428  0.33516773    -0.01500
C301        C  0.23260161  0.62052001  0.32785803    -0.01510
C302        C  0.35054605  0.58657066  0.32713453    -0.01500
C303        C  0.38886190  0.62502201  0.00472846    -0.01510
C304        C  0.24584759  0.87819565  0.32772950    -0.01500
C305        C  0.24764046  0.84054117  0.33299982    -0.01510
C306        C  0.09659704  0.72960557  0.00409700    -0.01500
C307        C  0.13234651  0.72548273  0.32795329    -0.01510
C308        C  0.09287185  0.84440791  0.99601221    -0.01500
C309        C  0.13043636  0.88313122  0.33560382    -0.01510
O310        O  0.45456502  0.68257271  0.29116433    -0.82210
O311        O  0.04093753  0.70685655  0.08936521    -0.82230
O312        O  0.38128688  0.64916206  0.11196709    -0.82240
O313        O  0.09168454  0.76279250  0.23466772    -0.82180
O314        O  0.44542756  0.65786473  0.08930758    -0.82300
O315        O  0.03235359  0.72195127  0.28867847    -0.82220
O316        O  0.10522574  0.76359130  0.10969826    -0.82210
O317        O  0.39617203  0.66502874  0.23621081    -0.82240
C318        C  0.41442133  0.65696799  0.28367144     1.07480
C319        C  0.08124017  0.73175990  0.07205991     1.07370
C320        C  0.40482694  0.64158930  0.07322338     1.07510
C321        C  0.07254329  0.73664793  0.28213817     1.07380
O322        O  0.03413535  0.80967617  0.25649647    -0.82210
O323        O  0.44954585  0.73542819  0.03803767    -0.82280
O324        O  0.39601577  0.70830628  0.22707274    -0.82220
O325        O  0.07969813  0.81966867  0.11284997    -0.82200
O326        O  0.03520756  0.77881795  0.03691795    -0.82250
O327        O  0.45197630  0.76836246  0.25924178    -0.82220
O328        O  0.09148015  0.80804689  0.22630877    -0.82180
O329        O  0.40461708  0.73046759  0.11374335    -0.82250
Co330      Co  0.49327394  0.74662999  0.26946763     1.51530
Co331      Co  0.49280818  0.72116016  0.07273321     1.51690
Co332      Co  0.43003824  0.69691116  0.15431129     1.51570
Co333      Co  0.05680317  0.76156246  0.15452731     1.51470
O334        O  0.49308331  0.74462021  0.17135806    -1.44140
C335        C  0.07403578  0.82421684  0.26342572     1.07410
C336        C  0.41646717  0.73777372  0.05393427     1.07500
C337        C  0.41208456  0.74199330  0.26439498     1.07440
C338        C  0.06779701  0.81463987  0.05307224     1.07410
O339        O  0.23034936  0.68012229  0.03449657    -0.82210
O340        O  0.15902359  0.69229159  0.25247050    -0.82230
O341        O  0.26062381  0.65230739  0.22131769    -0.82240
O342        O  0.17086723  0.75340031  0.10261341    -0.82180
O343        O  0.20154920  0.64905932  0.25207742    -0.82300
O344        O  0.19014677  0.71885667  0.03435404    -0.82220
O345        O  0.16412341  0.75164318  0.22063836    -0.82210
O346        O  0.26203993  0.65767123  0.10367002    -0.82240
C347        C  0.24014098  0.65224327  0.05001426     1.07480
C348        C  0.14751258  0.72010085  0.26008776     1.07370
C349        C  0.22872913  0.63680662  0.26039720     1.07510
C350        C  0.16387306  0.73087403  0.04944893     1.07380
O351        O  0.27089670  0.80352450  0.07387307    -0.82210
O352        O  0.28628478  0.72993935  0.28261289    -0.82280
O353        O  0.31587247  0.70381157  0.10098642    -0.82220
O354        O  0.23258764  0.81934722  0.21694080    -0.82200
O355        O  0.24077734  0.77560881  0.28451755    -0.82250
O356        O  0.31373607  0.76048606  0.07488173    -0.82220
O357        O  0.21466109  0.80586138  0.10265801    -0.82180
O358        O  0.32948326  0.71784277  0.21825512    -0.82250
Co359      Co  0.25003399  0.73952791  0.06041186     1.51530
Co360      Co  0.22237836  0.71211660  0.25801222     1.51690
Co361      Co  0.27896910  0.70805787  0.17158531     1.51570
Co362      Co  0.22020393  0.76850751  0.17101946     1.51470
O363        O  0.22679139  0.71601126  0.15366944    -1.44140
C364        C  0.24671265  0.81960080  0.06422081     1.07410
C365        C  0.32260631  0.73044383  0.27349781     1.07500
C366        C  0.32945682  0.73627236  0.06373104     1.07440
C367        C  0.24219275  0.81204184  0.27399463     1.07410
O368        O  0.29327101  0.52097004  0.04145487    -0.82210
O369        O  0.26828961  0.93441986  0.24330483    -0.82230
O370        O  0.32635523  0.59399425  0.22004343    -0.82240
O371        O  0.21567683  0.88406505  0.10103872    -0.82180
O372        O  0.31778496  0.53005645  0.24265179    -0.82300
O373        O  0.25176578  0.94202006  0.04163837    -0.82220
O374        O  0.20831295  0.87194439  0.22650819    -0.82090
O375        O  0.31035690  0.57945456  0.09533778    -0.82240
C376        C  0.31854657  0.56114725  0.04822513     1.07480
C377        C  0.24224580  0.89462560  0.26129421     1.07370
C378        C  0.33398044  0.57054697  0.25872472     1.07510
C379        C  0.23934690  0.90247416  0.05086192     1.07380
O380        O  0.16549353  0.94188832  0.07483889    -0.82210
O381        O  0.23998275  0.52518879  0.29465965    -0.82280
O382        O  0.26745715  0.58075565  0.10525645    -0.82220
O383        O  0.15369927  0.89802739  0.21825032    -0.82200
O384        O  0.19622628  0.94038075  0.29453965    -0.82250
O385        O  0.20762787  0.52420128  0.07437403    -0.82220
O386        O  0.16610964  0.88442976  0.10596547    -0.82180
O387        O  0.24398771  0.56909056  0.21826933    -0.82250
Co388      Co  0.22877227  0.98243100  0.06233802     1.51530
Co389      Co  0.25424446  0.98259065  0.25895194     1.51690
Co390      Co  0.27877214  0.54564198  0.17705629     1.51570
Co391      Co  0.21195416  0.91907238  0.17753581     1.51470
O392        O  0.23112317  0.98278678  0.16011231    -1.44140
C393        C  0.15081689  0.90206927  0.06799040     1.07410
C394        C  0.23709220  0.55759223  0.27821686     1.07500
C395        C  0.23359975  0.56403177  0.06804553     1.07440
C396        C  0.15960828  0.90888500  0.27843192     1.07410
C397        C  0.39123898  0.74174565  0.32939076    -0.01500
C398        C  0.35139676  0.73884808  0.66628099    -0.01510
C399        C  0.23324257  0.58307324  0.66850025    -0.01500
C400        C  0.23259826  0.62051885  0.66119016    -0.01510
C401        C  0.35054530  0.58657095  0.66046765    -0.01500
C402        C  0.38886203  0.62502257  0.33806285    -0.01510
C403        C  0.24585596  0.87819942  0.66106468    -0.01500
C404        C  0.24764718  0.84054397  0.66633635    -0.01510
C405        C  0.09659780  0.72960791  0.33743127    -0.01500
C406        C  0.13234694  0.72548184  0.66128484    -0.01510
C407        C  0.09287159  0.84440801  0.32934613    -0.01500
C408        C  0.13043572  0.88313061  0.66893329    -0.01510
O409        O  0.45456460  0.68257210  0.62449601    -0.82210
O410        O  0.04093721  0.70685748  0.42269800    -0.82230
O411        O  0.38128640  0.64916290  0.44530120    -0.82240
O412        O  0.09168383  0.76279082  0.56800058    -0.82180
O413        O  0.44542730  0.65786580  0.42264236    -0.82300
O414        O  0.03235289  0.72194975  0.62201119    -0.82220
O415        O  0.10522561  0.76359122  0.44303376    -0.82210
O416        O  0.39617114  0.66502985  0.56954494    -0.82240
C417        C  0.41442063  0.65696807  0.61700418     1.07480
C418        C  0.08124009  0.73176096  0.40539382     1.07370
C419        C  0.40482670  0.64159013  0.40655786     1.07510
C420        C  0.07254258  0.73664606  0.61547075     1.07380
O421        O  0.03413507  0.80967531  0.58982980    -0.82210
O422        O  0.44954518  0.73542879  0.37137160    -0.82280
O423        O  0.39601596  0.70830756  0.56040813    -0.82220
O424        O  0.07969807  0.81966807  0.44618337    -0.82200
O425        O  0.03520615  0.77881870  0.37025146    -0.82250
O426        O  0.45197719  0.76836325  0.59257623    -0.82220
O427        O  0.09147939  0.80804532  0.55964214    -0.82180
O428        O  0.40461621  0.73046832  0.44707684    -0.82250
Co429      Co  0.49327389  0.74662972  0.60280133     1.51530
Co430      Co  0.49280769  0.72116113  0.40606700     1.51690
Co431      Co  0.43003763  0.69691224  0.48764550     1.51570
Co432      Co  0.05680235  0.76156173  0.48786083     1.51470
O433        O  0.49308299  0.74462106  0.50469175    -1.44140
C434        C  0.07403533  0.82421560  0.59675862     1.07410
C435        C  0.41646643  0.73777425  0.38726775     1.07500
C436        C  0.41208549  0.74199470  0.59773021     1.07440
C437        C  0.06779636  0.81464001  0.38640593     1.07410
O438        O  0.23034203  0.68011720  0.36783696    -0.82210
O439        O  0.15902545  0.69229433  0.58579912    -0.82230
O440        O  0.26062614  0.65231116  0.55465401    -0.82240
O441        O  0.17087334  0.75340916  0.43594463    -0.82180
O442        O  0.20154951  0.64906072  0.58540815    -0.82300
O443        O  0.19014254  0.71885281  0.36769378    -0.82220
O444        O  0.16413120  0.75165043  0.55397653    -0.82210
O445        O  0.26205171  0.65768007  0.43699787    -0.82240
C446        C  0.24014351  0.65224456  0.38334908     1.07480
C447        C  0.14751574  0.72010433  0.59341918     1.07370
C448        C  0.22872894  0.63680757  0.59372907     1.07510
C449        C  0.16387390  0.73087721  0.38278470     1.07380
O450        O  0.27089667  0.80352328  0.40720148    -0.82210
O451        O  0.28628665  0.72994117  0.61594765    -0.82280
O452        O  0.31587104  0.70381168  0.43431827    -0.82220
O453        O  0.23260411  0.81935572  0.55027350    -0.82200
O454        O  0.24077979  0.77561029  0.61785284    -0.82250
O455        O  0.31373410  0.76048543  0.40821073    -0.82220
O456        O  0.21466413  0.80586471  0.43599150    -0.82180
O457        O  0.32948904  0.71785133  0.55158867    -0.82250
Co458      Co  0.25003100  0.73952532  0.39374493     1.51530
Co459      Co  0.22237988  0.71211826  0.59134581     1.51690
Co460      Co  0.27897289  0.70806269  0.50492189     1.51570
Co461      Co  0.22020984  0.76851238  0.50435190     1.51470
O462        O  0.22679398  0.71601386  0.48700475    -1.44140
C463        C  0.24671444  0.81960196  0.39755191     1.07410
C464        C  0.32260963  0.73044868  0.60683296     1.07500
C465        C  0.32945607  0.73627268  0.39706258     1.07440
C466        C  0.24220189  0.81204622  0.60732988     1.07410
O467        O  0.29327146  0.52096981  0.37478829    -0.82210
O468        O  0.26829238  0.93442221  0.57663824    -0.82230
O469        O  0.32635398  0.59399465  0.55337761    -0.82240
O470        O  0.21566241  0.88406073  0.43436181    -0.82180
O471        O  0.31778433  0.53005699  0.57598527    -0.82300
O472        O  0.25177167  0.94202065  0.37497957    -0.82220
O473        O  0.20831936  0.87194456  0.55984142    -0.82090
O474        O  0.31035763  0.57945406  0.42867239    -0.82240
C475        C  0.31854712  0.56114693  0.38155926     1.07480
C476        C  0.24225143  0.89462767  0.59462818     1.07370
C477        C  0.33397956  0.57054742  0.59205828     1.07510
C478        C  0.23934368  0.90247186  0.38419441     1.07380
O479        O  0.16549469  0.94188640  0.40817432    -0.82210
O480        O  0.23998122  0.52518852  0.62799260    -0.82280
O481        O  0.26745765  0.58075590  0.43859060    -0.82220
O482        O  0.15370070  0.89802185  0.55157935    -0.82200
O483        O  0.19622375  0.94038089  0.62786704    -0.82250
O484        O  0.20762878  0.52420166  0.40770562    -0.82220
O485        O  0.16611383  0.88442891  0.43929799    -0.82180
O486        O  0.24398620  0.56909026  0.55160219    -0.82250
Co487      Co  0.22877359  0.98242965  0.39567200     1.51530
Co488      Co  0.25424380  0.98259084  0.59228526     1.51690
Co489      Co  0.27877144  0.54564202  0.51039061     1.51570
Co490      Co  0.21195857  0.91907299  0.51087086     1.51470
O491        O  0.23112308  0.98278654  0.49344592    -1.44140
C492        C  0.15081825  0.90206750  0.40132534     1.07410
C493        C  0.23709021  0.55759168  0.61154960     1.07500
C494        C  0.23360094  0.56403233  0.40137848     1.07440
C495        C  0.15960746  0.90888261  0.61175993     1.07410
C496        C  0.39124067  0.74174771  0.66272639    -0.01500
C497        C  0.35139490  0.73884443  0.99961226    -0.01510
C498        C  0.23324296  0.58307282  0.00183434    -0.01500
C499        C  0.23259797  0.62051797  0.99452401    -0.01510
C500        C  0.35054541  0.58657069  0.99380031    -0.01500
C501        C  0.38886161  0.62502248  0.67139550    -0.01510
C502        C  0.24584890  0.87819646  0.99439750    -0.01500
C503        C  0.24763948  0.84054071  0.99966823    -0.01510
C504        C  0.09659719  0.72960556  0.67076347    -0.01500
C505        C  0.13234504  0.72547909  0.99461825    -0.01510
C506        C  0.09287140  0.84440706  0.66267794    -0.01500
C507        C  0.13043521  0.88313240  0.00226935    -0.01510
O508        O  0.45456490  0.68257170  0.95782979    -0.82210
O509        O  0.04093685  0.70685597  0.75603103    -0.82230
O510        O  0.38128665  0.64916287  0.77863341    -0.82240
O511        O  0.09168402  0.76279118  0.90133419    -0.82180
O512        O  0.44542728  0.65786491  0.75597428    -0.82300
O513        O  0.03235299  0.72194977  0.95534440    -0.82220
O514        O  0.10522516  0.76359027  0.77636518    -0.82210
O515        O  0.39617187  0.66502853  0.90287695    -0.82240
C516        C  0.41442115  0.65696735  0.95033712     1.07480
C517        C  0.08123971  0.73175920  0.73872633     1.07370
C518        C  0.40482665  0.64158974  0.73989014     1.07510
C519        C  0.07254266  0.73664625  0.94880420     1.07380
O520        O  0.03413584  0.80967572  0.92316314    -0.82210
O521        O  0.44954576  0.73542842  0.70470531    -0.82280
O522        O  0.39601584  0.70830605  0.89373961    -0.82220
O523        O  0.07969814  0.81966809  0.77951607    -0.82200
O524        O  0.03520678  0.77881763  0.70358457    -0.82250
O525        O  0.45197647  0.76836197  0.92590827    -0.82220
O526        O  0.09148028  0.80804586  0.89297569    -0.82180
O527        O  0.40461791  0.73046909  0.78041157    -0.82250
Co528      Co  0.49327377  0.74662904  0.93613427     1.51530
Co529      Co  0.49280803  0.72116034  0.73939998     1.51690
Co530      Co  0.43003822  0.69691141  0.82097776     1.51570
Co531      Co  0.05680281  0.76156187  0.82119392     1.51470
O532        O  0.49308336  0.74461983  0.83802496    -1.44140
C533        C  0.07403617  0.82421624  0.93009221     1.07410
C534        C  0.41646779  0.73777498  0.72060241     1.07500
C535        C  0.41208474  0.74199303  0.93106179     1.07440
C536        C  0.06779660  0.81463939  0.71973852     1.07410
O537        O  0.23035117  0.68012402  0.70116301    -0.82210
O538        O  0.15902450  0.69229099  0.91913461    -0.82230
O539        O  0.26062273  0.65230551  0.88798432    -0.82240
O540        O  0.17086849  0.75340220  0.76928049    -0.82180
O541        O  0.20154926  0.64906000  0.91874187    -0.82300
O542        O  0.19014839  0.71885873  0.70102107    -0.82220
O543        O  0.16412121  0.75164105  0.88730311    -0.82210
O544        O  0.26203845  0.65767003  0.77033792    -0.82240
C545        C  0.24014120  0.65224383  0.71668097     1.07480
C546        C  0.14751152  0.72009862  0.92675226     1.07370
C547        C  0.22872755  0.63680543  0.92706266     1.07510
C548        C  0.16387450  0.73087604  0.71611587     1.07380
O549        O  0.27089988  0.80352572  0.74054397    -0.82210
O550        O  0.28628675  0.72994199  0.94927870    -0.82280
O551        O  0.31587333  0.70381258  0.76765353    -0.82220
O552        O  0.23258147  0.81934512  0.88361038    -0.82200
O553        O  0.24077922  0.77561016  0.95118361    -0.82250
O554        O  0.31373727  0.76048751  0.74155208    -0.82220
O555        O  0.21466340  0.80586186  0.76932334    -0.82180
O556        O  0.32948109  0.71783741  0.88492445    -0.82250
Co557      Co  0.25003592  0.73952962  0.72707947     1.51530
Co558      Co  0.22237967  0.71211767  0.92467720     1.51690
Co559      Co  0.27896878  0.70805648  0.83825324     1.51570
Co560      Co  0.22020367  0.76850778  0.83768870     1.51470
O561        O  0.22679245  0.71601233  0.82033494    -1.44140
C562        C  0.24671661  0.81960230  0.73088922     1.07410
C563        C  0.32260637  0.73044254  0.94016515     1.07500
C564        C  0.32945792  0.73627410  0.73039977     1.07440
C565        C  0.24219051  0.81204135  0.94066250     1.07410
O566        O  0.29327043  0.52097026  0.70812137    -0.82210
O567        O  0.26828869  0.93441949  0.90997114    -0.82230
O568        O  0.32635315  0.59399446  0.88671071    -0.82240
O569        O  0.21569362  0.88406926  0.76771419    -0.82180
O570        O  0.31778431  0.53005693  0.90931738    -0.82300
O571        O  0.25176126  0.94201982  0.70829604    -0.82220
O572        O  0.20831048  0.87194466  0.89317899    -0.82090
O573        O  0.31035639  0.57945463  0.76200495    -0.82240
C574        C  0.31854615  0.56114742  0.71489224     1.07480
C575        C  0.24224499  0.89462556  0.92796212     1.07370
C576        C  0.33397932  0.57054731  0.92539080     1.07510
C577        C  0.23935290  0.90247714  0.71752828     1.07380
O578        O  0.16549287  0.94188782  0.74150206    -0.82210
O579        O  0.23998185  0.52518830  0.96132651    -0.82280
O580        O  0.26745619  0.58075565  0.77192277    -0.82220
O581        O  0.15369766  0.89802816  0.88491620    -0.82200
O582        O  0.19622489  0.94038164  0.96120436    -0.82250
O583        O  0.20762719  0.52420124  0.74103976    -0.82220
O584        O  0.16610818  0.88442912  0.77263171    -0.82180
O585        O  0.24398481  0.56908894  0.88493586    -0.82250
Co586      Co  0.22877130  0.98243171  0.72900329     1.51530
Co587      Co  0.25424386  0.98259063  0.92561810     1.51690
Co588      Co  0.27877065  0.54564194  0.84372299     1.51570
Co589      Co  0.21195178  0.91907102  0.84420079     1.51470
O590        O  0.23112369  0.98278646  0.82677777    -1.44140
C591        C  0.15081730  0.90206872  0.73465401     1.07410
C592        C  0.23709006  0.55759098  0.94488359     1.07500
C593        C  0.23359904  0.56403181  0.73471142     1.07440
C594        C  0.15960681  0.90888610  0.94509731     1.07410
C595        C  0.89124033  0.24174683  0.99605894    -0.01500
C596        C  0.85139414  0.23884396  0.33294474    -0.01510
C597        C  0.73324424  0.08307330  0.33516741    -0.01500
C598        C  0.73259995  0.12051887  0.32785792    -0.01510
C599        C  0.85054587  0.08657041  0.32713377    -0.01500
C600        C  0.88886184  0.12502231  0.00472874    -0.01510
C601        C  0.74584589  0.37819499  0.32772983    -0.01500
C602        C  0.74763812  0.34054018  0.33300012    -0.01510
C603        C  0.59659703  0.22960521  0.00409681    -0.01500
C604        C  0.63234542  0.22548073  0.32795258    -0.01510
C605        C  0.59287144  0.34440733  0.99601131    -0.01500
C606        C  0.63043590  0.38313219  0.33560447    -0.01510
O607        O  0.95456501  0.18257233  0.29116384    -0.82210
O608        O  0.54093720  0.20685624  0.08936487    -0.82230
O609        O  0.88128696  0.14916268  0.11196683    -0.82240
O610        O  0.59168428  0.26279215  0.23466779    -0.82180
O611        O  0.94542758  0.15786497  0.08930751    -0.82300
O612        O  0.53235321  0.22195057  0.28867790    -0.82220
O613        O  0.60522541  0.26359088  0.10969807    -0.82210
O614        O  0.89617207  0.16502854  0.23621029    -0.82240
C615        C  0.91442131  0.15696766  0.28367085     1.07480
C616        C  0.58123993  0.23175945  0.07205974     1.07370
C617        C  0.90482695  0.14158966  0.07322340     1.07510
C618        C  0.57254292  0.23664727  0.28213788     1.07380
O619        O  0.53413579  0.30967621  0.25649657    -0.82210
O620        O  0.94954605  0.23542854  0.03803816    -0.82280
O621        O  0.89601572  0.20830605  0.22707253    -0.82220
O622        O  0.57969799  0.31966849  0.11284943    -0.82200
O623        O  0.53520708  0.27881770  0.03691777    -0.82250
O624        O  0.95197614  0.26836212  0.25924171    -0.82220
O625        O  0.59148044  0.30804669  0.22630908    -0.82180
O626        O  0.90461776  0.23046856  0.11374419    -0.82250
Co627      Co  0.99327384  0.24662966  0.26946773     1.51530
Co628      Co  0.99280826  0.22116043  0.07273335     1.51690
Co629      Co  0.93003840  0.19691141  0.15431111     1.51570
Co630      Co  0.55680305  0.26156241  0.15452730     1.51470
O631        O  0.99308343  0.24462017  0.17135828    -1.44140
C632        C  0.57403620  0.32421687  0.26342590     1.07410
C633        C  0.91646775  0.23777461  0.05393508     1.07500
C634        C  0.91208439  0.24199297  0.26439485     1.07440
C635        C  0.56779666  0.31463960  0.05307177     1.07410
O636        O  0.73035197  0.18012467  0.03449465    -0.82210
O637        O  0.65902366  0.19229070  0.25246983    -0.82230
O638        O  0.76062270  0.15230570  0.22131726    -0.82240
O639        O  0.67086666  0.25339966  0.10261416    -0.82180
O640        O  0.70154910  0.14905950  0.25207679    -0.82300
O641        O  0.69014873  0.21885896  0.03435288    -0.82220
O642        O  0.66412035  0.25164043  0.22063612    -0.82210
O643        O  0.76203670  0.15766906  0.10367155    -0.82240
C644        C  0.74014069  0.15224371  0.05001362     1.07480
C645        C  0.64751118  0.22009882  0.26008678     1.07370
C646        C  0.72872820  0.13680583  0.26039693     1.07510
C647        C  0.66387377  0.23087469  0.04944862     1.07380
O648        O  0.77089873  0.30352568  0.07387673    -0.82210
O649        O  0.78628545  0.22994062  0.28261218    -0.82280
O650        O  0.81587324  0.20381226  0.10098696    -0.82220
O651        O  0.73258029  0.31934419  0.21694260    -0.82200
O652        O  0.74077783  0.27560935  0.28451669    -0.82250
O653        O  0.81373727  0.26048722  0.07488468    -0.82220
O654        O  0.71466189  0.30586107  0.10265702    -0.82180
O655        O  0.82948077  0.21783807  0.21825668    -0.82250
Co656      Co  0.75003584  0.23952969  0.06041242     1.51530
Co657      Co  0.72237874  0.21211695  0.25801111     1.51690
Co658      Co  0.77896809  0.20805622  0.17158539     1.51570
Co659      Co  0.72020248  0.26850673  0.17102118     1.51470
O660        O  0.72679146  0.21601146  0.15366823    -1.44140
C661        C  0.74671477  0.31960162  0.06422229     1.07410
C662        C  0.82260558  0.23044220  0.27349791     1.07500
C663        C  0.82945766  0.23627345  0.06373256     1.07440
C664        C  0.74218930  0.31204062  0.27399487     1.07410
O665        O  0.79327002  0.02097051  0.04145541    -0.82210
O666        O  0.76828817  0.43441868  0.24330422    -0.82230
O667        O  0.82635409  0.09399434  0.22004394    -0.82240
O668        O  0.71569160  0.38406904  0.10104688    -0.82180
O669        O  0.81778477  0.03005648  0.24265007    -0.82300
O670        O  0.75176167  0.44202003  0.04163070    -0.82220
O671        O  0.70830943  0.37194425  0.22651076    -0.82090
O672        O  0.81035668  0.07945520  0.09533813    -0.82240
C673        C  0.81854619  0.06114766  0.04822570     1.07480
C674        C  0.74224354  0.39462480  0.26129473     1.07370
C675        C  0.83398003  0.07054696  0.25872391     1.07510
C676        C  0.73935186  0.40247693  0.05086187     1.07380
O677        O  0.66549266  0.44188809  0.07483637    -0.82210
O678        O  0.73998358  0.02518919  0.29465888    -0.82280
O679        O  0.76745755  0.08075689  0.10525595    -0.82220
O680        O  0.65369782  0.39802951  0.21825127    -0.82200
O681        O  0.69622636  0.44038112  0.29454033    -0.82250
O682        O  0.70762753  0.02420311  0.07437683    -0.82220
O683        O  0.66610760  0.38442923  0.10596526    -0.82180
O684        O  0.74398571  0.06908969  0.21826863    -0.82250
Co685      Co  0.72877106  0.48243163  0.06233703     1.51530
Co686      Co  0.75424444  0.48259038  0.25895155     1.51690
Co687      Co  0.77877127  0.04564235  0.17705610     1.51570
Co688      Co  0.71195126  0.41907115  0.17753427     1.51470
O689        O  0.73112338  0.48278649  0.16011154    -1.44140
C690        C  0.65081674  0.40206904  0.06798803     1.07410
C691        C  0.73709140  0.05759175  0.27821631     1.07500
C692        C  0.73359983  0.06403316  0.06804587     1.07440
C693        C  0.65960771  0.40888637  0.27843289     1.07410
C694        C  0.89123877  0.24174506  0.32939068    -0.01500
C695        C  0.85139588  0.23884683  0.66627969    -0.01510
C696        C  0.73324399  0.08307364  0.66850101    -0.01500
C697        C  0.73260020  0.12051950  0.66119106    -0.01510
C698        C  0.85054544  0.08657107  0.66046779    -0.01500
C699        C  0.88886198  0.12502219  0.33806214    -0.01510
C700        C  0.74585282  0.37819783  0.66106377    -0.01500
C701        C  0.74764514  0.34054301  0.66633479    -0.01510
C702        C  0.59659727  0.22960687  0.33743089    -0.01500
C703        C  0.63234729  0.22548303  0.66128581    -0.01510
C704        C  0.59287186  0.34440824  0.32934639    -0.01500
C705        C  0.63043624  0.38313056  0.66893467    -0.01510
O706        O  0.95456463  0.18257222  0.62449675    -0.82210
O707        O  0.54093718  0.20685708  0.42269828    -0.82230
O708        O  0.88128649  0.14916218  0.44530083    -0.82240
O709        O  0.59168421  0.26279173  0.56800076    -0.82180
O710        O  0.94542741  0.15786532  0.42264151    -0.82300
O711        O  0.53235331  0.22195040  0.62201140    -0.82220
O712        O  0.60522555  0.26359120  0.44303287    -0.82210
O713        O  0.89617138  0.16502947  0.56954476    -0.82240
C714        C  0.91442076  0.15696807  0.61700459     1.07480
C715        C  0.58123996  0.23176049  0.40539359     1.07370
C716        C  0.90482677  0.14158961  0.40655719     1.07510
C717        C  0.57254305  0.23664704  0.61547108     1.07380
O718        O  0.53413518  0.30967567  0.58983006    -0.82210
O719        O  0.94954526  0.23542845  0.37137124    -0.82280
O720        O  0.89601578  0.20830700  0.56040723    -0.82220
O721        O  0.57969809  0.31966835  0.44618361    -0.82200
O722        O  0.53520684  0.27881849  0.37025145    -0.82250
O723        O  0.95197682  0.26836284  0.59257573    -0.82220
O724        O  0.59147964  0.30804598  0.55964201    -0.82180
O725        O  0.90461619  0.23046757  0.44707658    -0.82250
Co726      Co  0.99327378  0.24662961  0.60280105     1.51530
Co727      Co  0.99280780  0.22116075  0.40606663     1.51690
Co728      Co  0.93003772  0.19691156  0.48764511     1.51570
Co729      Co  0.55680260  0.26156200  0.48786078     1.51470
O730        O  0.99308296  0.24462053  0.50469147    -1.44140
C731        C  0.57403550  0.32421610  0.59675884     1.07410
C732        C  0.91646640  0.23777371  0.38726752     1.07500
C733        C  0.91208510  0.24199412  0.59772938     1.07440
C734        C  0.56779672  0.31464005  0.38640602     1.07410
O735        O  0.73034445  0.18011869  0.36783452    -0.82210
O736        O  0.65902461  0.19229342  0.58580138    -0.82230
O737        O  0.76062544  0.15230993  0.55465314    -0.82240
O738        O  0.67087056  0.25340520  0.43594536    -0.82180
O739        O  0.70154935  0.14905989  0.58540981    -0.82300
O740        O  0.69014374  0.21885384  0.36769115    -0.82220
O741        O  0.66412895  0.25164826  0.55397516    -0.82210
O742        O  0.76204727  0.15767661  0.43699998    -0.82240
C743        C  0.74014232  0.15224372  0.38334873     1.07480
C744        C  0.64751493  0.22010356  0.59342034     1.07370
C745        C  0.72872929  0.13680726  0.59373012     1.07510
C746        C  0.66387317  0.23087553  0.38278363     1.07380
O747        O  0.77089579  0.30352343  0.40720237    -0.82210
O748        O  0.78628554  0.22993981  0.61594741    -0.82280
O749        O  0.81587131  0.20381136  0.43431879    -0.82220
O750        O  0.73259976  0.31935304  0.55027303    -0.82200
O751        O  0.74077850  0.27560931  0.61785230    -0.82250
O752        O  0.81373446  0.26048531  0.40821189    -0.82220
O753        O  0.71466244  0.30586357  0.43599197    -0.82180
O754        O  0.82948720  0.21784895  0.55158813    -0.82250
Co755      Co  0.75003163  0.23952588  0.39374493     1.51530
Co756      Co  0.72237904  0.21211729  0.59134618     1.51690
Co757      Co  0.77897141  0.20806093  0.50492055     1.51570
Co758      Co  0.72020767  0.26851044  0.50435129     1.51470
O759        O  0.72679272  0.21601253  0.48700440    -1.44140
C760        C  0.74671271  0.31960119  0.39755237     1.07410
C761        C  0.82260835  0.23044695  0.60683220     1.07500
C762        C  0.82945598  0.23627215  0.39706297     1.07440
C763        C  0.74219923  0.31204464  0.60732891     1.07410
O764        O  0.79327194  0.02096950  0.37478799    -0.82210
O765        O  0.76829169  0.43442151  0.57663871    -0.82230
O766        O  0.82635478  0.09399464  0.55337658    -0.82240
O767        O  0.71566162  0.38406076  0.43436221    -0.82180
O768        O  0.81778461  0.03005705  0.57598542    -0.82300
O769        O  0.75177138  0.44202051  0.37497989    -0.82220
O770        O  0.70831805  0.37194439  0.55984024    -0.82090
O771        O  0.81035712  0.07945383  0.42867137    -0.82240
C772        C  0.81854701  0.06114675  0.38155855     1.07480
C773        C  0.74224981  0.39462692  0.59462776     1.07370
C774        C  0.83397990  0.07054747  0.59205816     1.07510
C775        C  0.73934284  0.40247162  0.38419477     1.07380
O776        O  0.66549484  0.44188738  0.40817473    -0.82210
O777        O  0.73998131  0.02518820  0.62799313    -0.82280
O778        O  0.76745651  0.08075473  0.43859016    -0.82220
O779        O  0.65370082  0.39802330  0.55158075    -0.82200
O780        O  0.69622475  0.44038083  0.62786926    -0.82250
O781        O  0.70762830  0.02419985  0.40770282    -0.82220
O782        O  0.66611311  0.38442951  0.43929849    -0.82180
O783        O  0.74398746  0.06909065  0.55160292    -0.82250
Co784      Co  0.72877389  0.48242996  0.39567235     1.51530
Co785      Co  0.75424417  0.48259079  0.59228571     1.51690
Co786      Co  0.77877178  0.04564182  0.51039013     1.51570
Co787      Co  0.71195812  0.41907327  0.51087095     1.51470
O788        O  0.73112337  0.48278684  0.49344632    -1.44140
C789        C  0.65081785  0.40206838  0.40132591     1.07410
C790        C  0.73709111  0.05759184  0.61155024     1.07500
C791        C  0.73359989  0.06403088  0.40137760     1.07440
C792        C  0.65960807  0.40888313  0.61176174     1.07410
C793        C  0.89124002  0.24174696  0.66272539    -0.01500
C794        C  0.85139611  0.23884658  0.99961357    -0.01510
C795        C  0.73324268  0.08307339  0.00183397    -0.01500
C796        C  0.73259757  0.12051846  0.99452328    -0.01510
C797        C  0.85054533  0.08657091  0.99380098    -0.01500
C798        C  0.88886160  0.12502268  0.67139598    -0.01510
C799        C  0.74585398  0.37819884  0.99439800    -0.01500
C800        C  0.74764414  0.34054281  0.99966939    -0.01510
C801        C  0.59659776  0.22960696  0.67076402    -0.01500
C802        C  0.63234589  0.22548006  0.99461792    -0.01510
C803        C  0.59287157  0.34440734  0.66267854    -0.01500
C804        C  0.63043520  0.38313140  0.00226729    -0.01510
O805        O  0.95456478  0.18257204  0.95782959    -0.82210
O806        O  0.54093721  0.20685662  0.75603104    -0.82230
O807        O  0.88128638  0.14916312  0.77863407    -0.82240
O808        O  0.59168390  0.26279058  0.90133393    -0.82180
O809        O  0.94542702  0.15786523  0.75597523    -0.82300
O810        O  0.53235295  0.22194976  0.95534472    -0.82220
O811        O  0.60522555  0.26359062  0.77636628    -0.82210
O812        O  0.89617150  0.16502923  0.90287766    -0.82240
C813        C  0.91442092  0.15696778  0.95033734     1.07480
C814        C  0.58124009  0.23176006  0.73872671     1.07370
C815        C  0.90482644  0.14159001  0.73989083     1.07510
C816        C  0.57254257  0.23664589  0.94880415     1.07380
O817        O  0.53413532  0.30967528  0.92316275    -0.82210
O818        O  0.94954548  0.23542853  0.70470521    -0.82280
O819        O  0.89601605  0.20830700  0.89374075    -0.82220
O820        O  0.57969829  0.31966792  0.77951634    -0.82200
O821        O  0.53520659  0.27881804  0.70358472    -0.82250
O822        O  0.95197702  0.26836285  0.92590887    -0.82220
O823        O  0.59147976  0.30804532  0.89297546    -0.82180
O824        O  0.90461727  0.23046904  0.78041103    -0.82250
Co825      Co  0.99327394  0.24662955  0.93613448     1.51530
Co826      Co  0.99280777  0.22116050  0.73940023     1.51690
Co827      Co  0.93003792  0.19691196  0.82097837     1.51570
Co828      Co  0.55680268  0.26156158  0.82119395     1.51470
O829        O  0.99308324  0.24462045  0.83802505    -1.44140
C830        C  0.57403560  0.32421566  0.93009178     1.07410
C831        C  0.91646726  0.23777480  0.72060187     1.07500
C832        C  0.91208532  0.24199410  0.93106278     1.07440
C833        C  0.56779661  0.31463957  0.71973887     1.07410
O834        O  0.73034622  0.18012027  0.70116736    -0.82210
O835        O  0.65902531  0.19229294  0.91913285    -0.82230
O836        O  0.76062449  0.15230845  0.88798570    -0.82240
O837        O  0.67087197  0.25340695  0.76927892    -0.82180
O838        O  0.70154948  0.14906072  0.91874085    -0.82300
O839        O  0.69014534  0.21885556  0.70102478    -0.82220
O840        O  0.66412680  0.25164629  0.88730681    -0.82210
O841        O  0.76204594  0.15767559  0.77033439    -0.82240
C842        C  0.74014260  0.15224425  0.71668201     1.07480
C843        C  0.64751386  0.22010165  0.92675201     1.07370
C844        C  0.72872806  0.13680656  0.92706193     1.07510
C845        C  0.66387464  0.23087722  0.71611717     1.07380
O846        O  0.77089886  0.30352448  0.74053943    -0.82210
O847        O  0.78628716  0.22994215  0.94927971    -0.82280
O848        O  0.81587230  0.20381222  0.76765252    -0.82220
O849        O  0.73259372  0.31935115  0.88360884    -0.82200
O850        O  0.74078007  0.27561069  0.95118496    -0.82250
O851        O  0.81373574  0.26048651  0.74154815    -0.82220
O852        O  0.71466445  0.30586349  0.76932375    -0.82180
O853        O  0.82948535  0.21784447  0.88492352    -0.82250
Co854      Co  0.75003352  0.23952737  0.72707894     1.51530
Co855      Co  0.72238014  0.21211836  0.92467791     1.51690
Co856      Co  0.77897123  0.20805989  0.83825451     1.51570
Co857      Co  0.72020745  0.26851066  0.83768741     1.51470
O858        O  0.72679367  0.21601354  0.82033650    -1.44140
C859        C  0.74671639  0.31960237  0.73088721     1.07410
C860        C  0.82260835  0.23044592  0.94016586     1.07500
C861        C  0.82945717  0.23627355  0.73039795     1.07440
C862        C  0.74219694  0.31204433  0.94066313     1.07410
O863        O  0.79327084  0.02097018  0.70812119    -0.82210
O864        O  0.76829087  0.43442142  0.90997114    -0.82230
O865        O  0.82635333  0.09399446  0.88671129    -0.82240
O866        O  0.71568020  0.38406537  0.76770581    -0.82180
O867        O  0.81778414  0.03005692  0.90931902    -0.82300
O868        O  0.75176558  0.44202001  0.70830311    -0.82220
O869        O  0.70831540  0.37194495  0.89317763    -0.82090
O870        O  0.81035702  0.07945429  0.76200570    -0.82240
C871        C  0.81854653  0.06114727  0.71489243     1.07480
C872        C  0.74224898  0.39462717  0.92796195     1.07370
C873        C  0.83397927  0.07054737  0.92539179     1.07510
C874        C  0.73934901  0.40247474  0.71752790     1.07380
O875        O  0.66549358  0.44188699  0.74150414    -0.82210
O876        O  0.73998080  0.02518823  0.96132681    -0.82280
O877        O  0.76745680  0.08075562  0.77192378    -0.82220
O878        O  0.65369901  0.39802449  0.88491383    -0.82200
O879        O  0.69622381  0.44038129  0.96120139    -0.82250
O880        O  0.70762789  0.02420125  0.74103991    -0.82220
O881        O  0.66611096  0.38442898  0.77263140    -0.82180
O882        O  0.74398537  0.06908941  0.88493589    -0.82250
Co883      Co  0.72877217  0.48243076  0.72900391     1.51530
Co884      Co  0.75424351  0.48259092  0.92561803     1.51690
Co885      Co  0.77877106  0.04564181  0.84372372     1.51570
Co886      Co  0.71195513  0.41907190  0.84420216     1.51470
O887        O  0.73112320  0.48278640  0.82677812    -1.44140
C888        C  0.65081789  0.40206800  0.73465577     1.07410
C889        C  0.73708979  0.05759129  0.94488357     1.07500
C890        C  0.73359988  0.06403189  0.73471204     1.07440
C891        C  0.65960679  0.40888414  0.94509450     1.07410
C892        C  0.89124089  0.74174739  0.99605932    -0.01500
C893        C  0.85139322  0.73884267  0.33294396    -0.01510
C894        C  0.73324488  0.58307345  0.33516790    -0.01500
C895        C  0.73260044  0.62051889  0.32785824    -0.01510
C896        C  0.85054602  0.58657044  0.32713357    -0.01500
C897        C  0.88886185  0.62502234  0.00472849    -0.01510
C898        C  0.74584359  0.87819403  0.32772944    -0.01500
C899        C  0.74763557  0.84053910  0.33299940    -0.01510
C900        C  0.59659705  0.72960463  0.00409658    -0.01500
C901        C  0.63234462  0.72548005  0.32795289    -0.01510
C902        C  0.59287134  0.84440729  0.99601095    -0.01500
C903        C  0.63043564  0.88313246  0.33560513    -0.01510
O904        O  0.95456522  0.68257251  0.29116397    -0.82210
O905        O  0.54093731  0.70685605  0.08936480    -0.82230
O906        O  0.88128709  0.64916267  0.11196652    -0.82240
O907        O  0.59168420  0.76279235  0.23466788    -0.82180
O908        O  0.94542770  0.65786494  0.08930718    -0.82300
O909        O  0.53235306  0.72195065  0.28867775    -0.82220
O910        O  0.60522541  0.76359093  0.10969748    -0.82210
O911        O  0.89617237  0.66502823  0.23620987    -0.82240
C912        C  0.91442160  0.65696762  0.28367072     1.07480
C913        C  0.58124004  0.73175918  0.07205956     1.07370
C914        C  0.90482704  0.64158964  0.07322311     1.07510
C915        C  0.57254276  0.73664743  0.28213791     1.07380
O916        O  0.53413575  0.80967632  0.25649607    -0.82210
O917        O  0.94954639  0.73542868  0.03803813    -0.82280
O918        O  0.89601555  0.70830558  0.22707192    -0.82220
O919        O  0.57969792  0.81966863  0.11284927    -0.82200
O920        O  0.53520720  0.77881760  0.03691768    -0.82250
O921        O  0.95197563  0.76836180  0.25924153    -0.82220
O922        O  0.59148051  0.80804689  0.22630901    -0.82180
O923        O  0.90461821  0.73046876  0.11374431    -0.82250
Co924      Co  0.99327380  0.74662987  0.26946778     1.51530
Co925      Co  0.99280847  0.72116047  0.07273334     1.51690
Co926      Co  0.93003861  0.69691132  0.15431077     1.51570
Co927      Co  0.55680311  0.76156252  0.15452708     1.51470
O928        O  0.99308351  0.74462024  0.17135828    -1.44140
C929        C  0.57403617  0.82421706  0.26342572     1.07410
C930        C  0.91646820  0.73777490  0.05393523     1.07500
C931        C  0.91208389  0.74199239  0.26439438     1.07440
C932        C  0.56779666  0.81463961  0.05307158     1.07410
O933        O  0.73035522  0.68012693  0.03449199    -0.82210
O934        O  0.65902299  0.69228944  0.25247105    -0.82230
O935        O  0.76062163  0.65230388  0.22131613    -0.82240
O936        O  0.67086479  0.75339691  0.10261514    -0.82180
O937        O  0.70154897  0.64905904  0.25207718    -0.82300
O938        O  0.69015059  0.71886071  0.03435085    -0.82220
O939        O  0.66411706  0.75163733  0.22063419    -0.82210
O940        O  0.76203176  0.65766524  0.10367413    -0.82240
C941        C  0.74013973  0.65224321  0.05001323     1.07480
C942        C  0.64750964  0.72009696  0.26008706     1.07370
C943        C  0.72872793  0.63680518  0.26039718     1.07510
C944        C  0.66387383  0.73087399  0.04944795     1.07380
O945        O  0.77089930  0.80352635  0.07387955    -0.82210
O946        O  0.78628504  0.72994048  0.28261152    -0.82280
O947        O  0.81587410  0.70381255  0.10098756    -0.82220
O948        O  0.73257322  0.81934070  0.21694352    -0.82200
O949        O  0.74077715  0.77560897  0.28451601    -0.82250
O950        O  0.81373826  0.76048780  0.07488695    -0.82220
O951        O  0.71466121  0.80585996  0.10265702    -0.82180
O952        O  0.82947807  0.71783375  0.21825728    -0.82250
Co953      Co  0.75003734  0.73953098  0.06041279     1.51530
Co954      Co  0.72237832  0.71211647  0.25801072     1.51690
Co955      Co  0.77896658  0.70805406  0.17158432     1.51570
Co956      Co  0.72020031  0.76850499  0.17102224     1.51470
O957        O  0.72679070  0.71601070  0.15366735    -1.44140
C958        C  0.74671482  0.81960146  0.06422367     1.07410
C959        C  0.82260423  0.73044013  0.27349747     1.07500
C960        C  0.82945821  0.73627376  0.06373353     1.07440
C961        C  0.74218553  0.81203890  0.27399455     1.07410
O962        O  0.79327012  0.52097061  0.04145511    -0.82210
O963        O  0.76828714  0.93441808  0.24330434    -0.82230
O964        O  0.82635421  0.59399426  0.22004346    -0.82240
O965        O  0.71569699  0.88407057  0.10105074    -0.82180
O966        O  0.81778485  0.53005649  0.24265006    -0.82300
O967        O  0.75175947  0.94201974  0.04162779    -0.82220
O968        O  0.70830721  0.87194439  0.22651131    -0.82090
O969        O  0.81035624  0.57945527  0.09533766    -0.82240
C970        C  0.81854602  0.56114782  0.04822537     1.07480
C971        C  0.74224177  0.89462428  0.26129470     1.07370
C972        C  0.83398011  0.57054696  0.25872371     1.07510
C973        C  0.73935321  0.90247776  0.05086232     1.07380
O974        O  0.66549231  0.94188879  0.07483510    -0.82210
O975        O  0.73998350  0.52518890  0.29465941    -0.82280
O976        O  0.76745662  0.58075620  0.10525561    -0.82220
O977        O  0.65369702  0.89803108  0.21825209    -0.82200
O978        O  0.69622651  0.94038125  0.29454148    -0.82250
O979        O  0.70762695  0.52420202  0.07437574    -0.82220
O980        O  0.66610616  0.88442957  0.10596542    -0.82180
O981        O  0.74398595  0.56908948  0.21826908    -0.82250
Co982      Co  0.72877073  0.98243218  0.06233671     1.51530
Co983      Co  0.75424429  0.98259039  0.25895157     1.51690
Co984      Co  0.77877126  0.54564217  0.17705569     1.51570
Co985      Co  0.71194967  0.91907096  0.17753363     1.51470
O986        O  0.73112342  0.98278665  0.16011133    -1.44140
C987        C  0.65081634  0.90206964  0.06798711     1.07410
C988        C  0.73709165  0.55759161  0.27821682     1.07500
C989        C  0.73359887  0.56403225  0.06804547     1.07440
C990        C  0.65960745  0.90888714  0.27843393     1.07410
C991        C  0.89123800  0.74174411  0.32939012    -0.01500
C992        C  0.85139614  0.73884729  0.66627983    -0.01510
C993        C  0.73324468  0.58307418  0.66850073    -0.01500
C994        C  0.73260112  0.62052016  0.66119097    -0.01510
C995        C  0.85054548  0.58657081  0.66046823    -0.01500
C996        C  0.88886220  0.62502216  0.33806201    -0.01510
C997        C  0.74585388  0.87819829  0.66106337    -0.01500
C998        C  0.74764660  0.84054368  0.66633441    -0.01510
C999        C  0.59659696  0.72960699  0.33743107    -0.01500
C1000       C  0.63234801  0.72548424  0.66128604    -0.01510
C1001       C  0.59287167  0.84440844  0.32934647    -0.01500
C1002       C  0.63043674  0.88313016  0.66893478    -0.01510
O1003       O  0.95456444  0.68257196  0.62449678    -0.82210
O1004       O  0.54093697  0.70685743  0.42269854    -0.82230
O1005       O  0.88128653  0.64916178  0.44530105    -0.82240
O1006       O  0.59168424  0.76279207  0.56800075    -0.82180
O1007       O  0.94542760  0.65786543  0.42264142    -0.82300
O1008       O  0.53235337  0.72195038  0.62201119    -0.82220
O1009       O  0.60522541  0.76359146  0.44303299    -0.82210
O1010       O  0.89617112  0.66502949  0.56954518    -0.82240
C1011       C  0.91442052  0.65696797  0.61700488     1.07480
C1012       C  0.58123972  0.73176080  0.40539372     1.07370
C1013       C  0.90482694  0.64158952  0.40655715     1.07510
C1014       C  0.57254318  0.73664731  0.61547105     1.07380
O1015       O  0.53413529  0.80967585  0.58983075    -0.82210
O1016       O  0.94954490  0.73542832  0.37137110    -0.82280
O1017       O  0.89601565  0.70830698  0.56040749    -0.82220
O1018       O  0.57969783  0.81966849  0.44618350    -0.82200
O1019       O  0.53520651  0.77881867  0.37025128    -0.82250
O1020       O  0.95197687  0.76836275  0.59257583    -0.82220
O1021       O  0.59147962  0.80804615  0.55964203    -0.82180
O1022       O  0.90461548  0.73046681  0.44707624    -0.82250
Co1023     Co  0.99327365  0.74662933  0.60280113     1.51530
Co1024     Co  0.99280766  0.72116094  0.40606655     1.51690
Co1025     Co  0.93003751  0.69691134  0.48764538     1.51570
Co1026     Co  0.55680244  0.76156227  0.48786086     1.51470
O1027       O  0.99308275  0.74462043  0.50469151    -1.44140
C1028       C  0.57403560  0.82421622  0.59675919     1.07410
C1029       C  0.91646577  0.73777312  0.38726720     1.07500
C1030       C  0.91208514  0.74199416  0.59772956     1.07440
C1031       C  0.56779644  0.81464019  0.38640592     1.07410
O1032       O  0.73034253  0.68011725  0.36783562    -0.82210
O1033       O  0.65902461  0.69229404  0.58580153    -0.82230
O1034       O  0.76062601  0.65231109  0.55465334    -0.82240
O1035       O  0.67087064  0.75340562  0.43594495    -0.82180
O1036       O  0.70154934  0.64905990  0.58541031    -0.82300
O1037       O  0.69014229  0.71885243  0.36769202    -0.82220
O1038       O  0.66413056  0.75164987  0.55397623    -0.82210
O1039       O  0.76204962  0.65767852  0.43699867    -0.82240
C1040       C  0.74014258  0.65224376  0.38334891     1.07480
C1041       C  0.64751572  0.72010479  0.59342072     1.07370
C1042       C  0.72872977  0.63680783  0.59373024     1.07510
C1043       C  0.66387246  0.73087509  0.38278394     1.07380
O1044       O  0.77089446  0.80352272  0.40720031    -0.82210
O1045       O  0.78628518  0.72993914  0.61594801    -0.82280
O1046       O  0.81587057  0.70381102  0.43431842    -0.82220
O1047       O  0.73260370  0.81935478  0.55027189    -0.82200
O1048       O  0.74077830  0.77560915  0.61785254    -0.82250
O1049       O  0.81373356  0.76048471  0.40820989    -0.82220
O1050       O  0.71466182  0.80586375  0.43599231    -0.82180
O1051       O  0.82948877  0.71785198  0.55158722    -0.82250
Co1052     Co  0.75003031  0.73952482  0.39374454     1.51530
Co1053     Co  0.72237883  0.71211720  0.59134679     1.51690
Co1054     Co  0.77897204  0.70806221  0.50492076     1.51570
Co1055     Co  0.72020834  0.76851095  0.50435017     1.51470
O1056       O  0.72679263  0.71601249  0.48700505    -1.44140
C1057       C  0.74671140  0.81960074  0.39755146     1.07410
C1058       C  0.82260882  0.73044800  0.60683229     1.07500
C1059       C  0.82945529  0.73627159  0.39706199     1.07440
C1060       C  0.74220115  0.81204542  0.60732856     1.07410
O1061       O  0.79327204  0.52096952  0.37478796    -0.82210
O1062       O  0.76829240  0.93442205  0.57663841    -0.82230
O1063       O  0.82635535  0.59399439  0.55337670    -0.82240
O1064       O  0.71565560  0.88405917  0.43435882    -0.82180
O1065       O  0.81778467  0.53005664  0.57598598    -0.82300
O1066       O  0.75177288  0.94202058  0.37498294    -0.82220
O1067       O  0.70831957  0.87194445  0.55983910    -0.82090
O1068       O  0.81035755  0.57945383  0.42867146    -0.82240
C1069       C  0.81854726  0.56114674  0.38155847     1.07480
C1070       C  0.74225091  0.89462734  0.59462725     1.07370
C1071       C  0.83398012  0.57054712  0.59205857     1.07510
C1072       C  0.73934071  0.90247055  0.38419466     1.07380
O1073       O  0.66549484  0.94188721  0.40817578    -0.82210
O1074       O  0.73998152  0.52518842  0.62799293    -0.82280
O1075       O  0.76745733  0.58075507  0.43859048    -0.82220
O1076       O  0.65370139  0.89802250  0.55158066    -0.82200
O1077       O  0.69622499  0.94038060  0.62786916    -0.82250
O1078       O  0.70762876  0.52420044  0.40770423    -0.82220
O1079       O  0.66611370  0.88442952  0.43929845    -0.82180
O1080       O  0.74398831  0.56909114  0.55160272    -0.82250
Co1081     Co  0.72877397  0.98242960  0.39567268     1.51530
Co1082     Co  0.75424429  0.98259091  0.59228560     1.51690
Co1083     Co  0.77877232  0.54564180  0.51039022     1.51570
Co1084     Co  0.71195908  0.91907369  0.51087143     1.51470
O1085       O  0.73112295  0.98278686  0.49344657    -1.44140
C1086       C  0.65081764  0.90206824  0.40132677     1.07410
C1087       C  0.73709170  0.55759228  0.61154999     1.07500
C1088       C  0.73360057  0.56403132  0.40137828     1.07440
C1089       C  0.65960850  0.90888257  0.61176166     1.07410
C1090       C  0.89124019  0.74174722  0.66272556    -0.01500
C1091       C  0.85139676  0.73884733  0.99961419    -0.01510
C1092       C  0.73324137  0.58307265  0.00183375    -0.01500
C1093       C  0.73259616  0.62051773  0.99452305    -0.01510
C1094       C  0.85054519  0.58657109  0.99380073    -0.01500
C1095       C  0.88886143  0.62502261  0.67139635    -0.01510
C1096       C  0.74585514  0.87819932  0.99439884    -0.01500
C1097       C  0.74764511  0.84054318  0.99967053    -0.01510
C1098       C  0.59659807  0.72960747  0.67076407    -0.01500
C1099       C  0.63234593  0.72547946  0.99461741    -0.01510
C1100       C  0.59287182  0.84440723  0.66267884    -0.01500
C1101       C  0.63043489  0.88313160  0.00226653    -0.01510
O1102       O  0.95456480  0.68257208  0.95782943    -0.82210
O1103       O  0.54093737  0.70685652  0.75603090    -0.82230
O1104       O  0.88128626  0.64916342  0.77863417    -0.82240
O1105       O  0.59168399  0.76279009  0.90133386    -0.82180
O1106       O  0.94542678  0.65786511  0.75597564    -0.82300
O1107       O  0.53235308  0.72194973  0.95534508    -0.82220
O1108       O  0.60522574  0.76359041  0.77636672    -0.82210
O1109       O  0.89617149  0.66502943  0.90287766    -0.82240
C1110       C  0.91442093  0.65696785  0.95033718     1.07480
C1111       C  0.58124027  0.73176009  0.73872677     1.07370
C1112       C  0.90482624  0.64159005  0.73989115     1.07510
C1113       C  0.57254263  0.73664552  0.94880414     1.07380
O1114       O  0.53413523  0.80967501  0.92316257    -0.82210
O1115       O  0.94954549  0.73542846  0.70470536    -0.82280
O1116       O  0.89601635  0.70830739  0.89374108    -0.82220
O1117       O  0.57969860  0.81966770  0.77951662    -0.82200
O1118       O  0.53520681  0.77881797  0.70358499    -0.82250
O1119       O  0.95197745  0.76836318  0.92590895    -0.82220
O1120       O  0.59147971  0.80804501  0.89297553    -0.82180
O1121       O  0.90461750  0.73046946  0.78041122    -0.82250
Co1122     Co  0.99327412  0.74662958  0.93613434     1.51530
Co1123     Co  0.99280772  0.72116025  0.73940031     1.51690
Co1124     Co  0.93003793  0.69691218  0.82097843     1.51570
Co1125     Co  0.55680281  0.76156127  0.82119409     1.51470
O1126       O  0.99308337  0.74462044  0.83802499    -1.44140
C1127       C  0.57403551  0.82421539  0.93009162     1.07410
C1128       C  0.91646740  0.73777499  0.72060202     1.07500
C1129       C  0.91208575  0.74199453  0.93106305     1.07440
C1130       C  0.56779687  0.81463945  0.71973918     1.07410
O1131       O  0.73034488  0.68011940  0.70116890    -0.82210
O1132       O  0.65902596  0.69229350  0.91913156    -0.82230
O1133       O  0.76062496  0.65230903  0.88798661    -0.82240
O1134       O  0.67087371  0.75340923  0.76927839    -0.82180
O1135       O  0.70154962  0.64906114  0.91873999    -0.82300
O1136       O  0.69014488  0.71885516  0.70102597    -0.82220
O1137       O  0.66412833  0.75164761  0.88730759    -0.82210
O1138       O  0.76204850  0.65767743  0.77033316    -0.82240
C1139       C  0.74014328  0.65224467  0.71668223     1.07480
C1140       C  0.64751455  0.72010217  0.92675138     1.07370
C1141       C  0.72872783  0.63680658  0.92706157     1.07510
C1142       C  0.66387524  0.73087830  0.71611756     1.07380
O1143       O  0.77089957  0.80352448  0.74053863    -0.82210
O1144       O  0.78628795  0.72994295  0.94927975    -0.82280
O1145       O  0.81587217  0.70381224  0.76765229    -0.82220
O1146       O  0.73259653  0.81935275  0.88360917    -0.82200
O1147       O  0.74078093  0.77561121  0.95118541    -0.82250
O1148       O  0.81373564  0.76048650  0.74154782    -0.82220
O1149       O  0.71466569  0.80586432  0.76932344    -0.82180
O1150       O  0.82948644  0.71784563  0.88492384    -0.82250
Co1151     Co  0.75003332  0.73952709  0.72707894     1.51530
Co1152     Co  0.72238076  0.71211891  0.92467771     1.51690
Co1153     Co  0.77897209  0.70806071  0.83825538     1.51570
Co1154     Co  0.72020889  0.76851183  0.83768759     1.51470
O1155       O  0.72679450  0.71601431  0.82033672    -1.44140
C1156       C  0.74671758  0.81960293  0.73088676     1.07410
C1157       C  0.82260920  0.73044687  0.94016621     1.07500
C1158       C  0.82945729  0.73627376  0.73039793     1.07440
C1159       C  0.74219860  0.81204520  0.94066383     1.07410
O1160       O  0.79327067  0.52097002  0.70812149    -0.82210
O1161       O  0.76829113  0.93442149  0.90997140    -0.82230
O1162       O  0.82635266  0.59399474  0.88671166    -0.82240
O1163       O  0.71568085  0.88406546  0.76770545    -0.82180
O1164       O  0.81778403  0.53005727  0.90931845    -0.82300
O1165       O  0.75176619  0.94202023  0.70830298    -0.82220
O1166       O  0.70831600  0.87194479  0.89317828    -0.82090
O1167       O  0.81035706  0.57945417  0.76200607    -0.82240
C1168       C  0.81854649  0.56114707  0.71489283     1.07480
C1169       C  0.74224958  0.89462728  0.92796255     1.07370
C1170       C  0.83397900  0.57054767  0.92539158     1.07510
C1171       C  0.73934974  0.90247498  0.71752760     1.07380
O1172       O  0.66549389  0.94188653  0.74150438    -0.82210
O1173       O  0.73998070  0.52518825  0.96132647    -0.82280
O1174       O  0.76745693  0.58075593  0.77192377    -0.82220
O1175       O  0.65369920  0.89802381  0.88491312    -0.82200
O1176       O  0.69622336  0.94038144  0.96120038    -0.82250
O1177       O  0.70762803  0.52420169  0.74103957    -0.82220
O1178       O  0.66611172  0.88442868  0.77263133    -0.82180
O1179       O  0.74398431  0.56908908  0.88493563    -0.82250
Co1180     Co  0.72877238  0.98243062  0.72900393     1.51530
Co1181     Co  0.75424351  0.98259084  0.92561815     1.51690
Co1182     Co  0.77877056  0.54564198  0.84372403     1.51570
Co1183     Co  0.71195568  0.91907171  0.84420235     1.51470
O1184       O  0.73112354  0.98278627  0.82677811    -1.44140
C1185       C  0.65081844  0.90206759  0.73465585     1.07410
C1186       C  0.73708898  0.55759094  0.94488329     1.07500
C1187       C  0.73360019  0.56403231  0.73471175     1.07440
C1188       C  0.65960657  0.90888398  0.94509357     1.07410
loop_ 
_geom_bond_atom_site_label_1 
_geom_bond_atom_site_label_2 
_geom_bond_distance 
_geom_bond_site_symmetry_2 
_ccdc_geom_bond_type 
C1           C39   1.519   1_556  S
C1          C238   1.499       .  S
C1          C200   1.367       .  D
C2           C68   1.502       .  S
C2          C168   1.485       .  S
C2          C100   1.367       .  D
C3           C97   1.510       .  S
C3          C197   1.498       .  S
C3            C4   1.354       .  D
C4           C52   1.509       .  S
C4          C149   1.513       .  S
C5           C81   1.492       .  S
C5          C178   1.506       .  S
C5          C105   1.376       .  D
C6           C23   1.494       .  S
C6          C219   1.507   1_554  S
C6          C203   1.376   1_554  D
C7           C80   1.490       .  S
C7          C181   1.514       .  S
C7            C8   1.379       .  D
C8           C70   1.509       .  S
C8          C166   1.490       .  S
C9           C22   1.488       .  S
C9          C222   1.499   1_554  S
C9          C208   1.362   1_554  D
C10          C51   1.514       .  S
C10         C152   1.513       .  S
C10         C108   1.362       .  D
C11          C41   1.510   1_556  S
C11         C236   1.496       .  S
C11         C210   1.356   1_556  D
C12          C99   1.508       .  S
C12         C195   1.495       .  S
C12         C110   1.356       .  D
O13          C21   1.254       .  A
O13         Co33   2.029       .  S
O14          C22   1.293       .  A
O14        Co628   2.042   1_455  S
O15          C23   1.267       .  A
O15         Co35   1.908       .  S
O16          C24   1.265       .  A
O16         Co36   2.020       .  S
O17          C23   1.294       .  A
O17         Co34   2.047       .  S
O18          C24   1.254       .  A
O18        Co627   2.019   1_455  S
O19          C22   1.269       .  A
O19         Co36   1.909       .  S
O20          C21   1.266       .  A
O20         Co35   2.017       .  S
C21         C105   1.507       .  S
C24         C108   1.499       .  S
O25          C38   1.246       .  A
O25        Co627   1.981   1_455  S
O26          C39   1.259       .  A
O26         Co34   1.973       .  S
O27          C40   1.280       .  A
O27         Co35   2.063       .  S
O28          C41   1.257       .  A
O28         Co36   1.987       .  S
O29          C41   1.257       .  A
O29        Co628   1.969   1_455  S
O30          C40   1.247       .  A
O30         Co33   1.984       .  S
O31          C38   1.277       .  A
O31         Co36   2.070       .  S
O32          C39   1.257       .  A
O32         Co35   2.000       .  S
Co33        O612   2.019       .  S
Co33        O619   1.981       .  S
Co33         O37   1.975       .  S
Co34        O608   2.042       .  S
Co34        O623   1.969       .  S
Co34         O37   2.151       .  S
Co35         O37   2.043       .  S
Co36        O631   2.053   1_455  S
O37        Co630   2.053       .  S
C38         C110   1.496       .  S
C40         C100   1.499       .  S
O42          C50   1.246       .  A
O42         Co62   1.935       .  S
O43          C51   1.257       .  A
O43         Co63   1.991       .  S
O44          C52   1.254       .  A
O44         Co64   2.015       .  S
O45          C53   1.284       .  A
O45         Co65   2.074       .  S
O46          C52   1.255       .  A
O46         Co63   1.982       .  S
O47          C53   1.244       .  A
O47         Co62   1.938       .  S
O48          C51   1.253       .  A
O48         Co65   2.027       .  S
O49          C50   1.287       .  A
O49         Co64   2.088       .  S
C50         C202   1.513   1_554  S
C53         C208   1.513   1_554  S
O54          C67   1.265       .  A
O54         Co62   2.028       .  S
O55          C68   1.293       .  A
O55         Co63   2.083       .  S
O56          C69   1.252       .  A
O56         Co64   1.988       .  S
O57          C70   1.262       .  A
O57         Co65   1.877       .  S
O58          C70   1.291       .  A
O58         Co63   2.082       .  S
O59          C69   1.261       .  A
O59         Co62   2.012       .  S
O60          C67   1.252       .  A
O60         Co65   1.991       .  S
O61          C68   1.267       .  A
O61         Co64   1.894       .  S
Co62         O66   2.050       .  S
Co63         O66   2.104       .  S
Co64         O66   2.042       .  S
Co65         O66   2.028       .  S
C67         C206   1.490   1_554  S
C69         C200   1.485   1_554  S
O71          C79   1.255       .  A
O71        Co388   2.031   1_545  S
O72          C80   1.293       .  A
O72         Co92   2.038       .  S
O73          C81   1.267       .  A
O73         Co93   1.905       .  S
O74          C82   1.264       .  A
O74         Co94   2.026       .  S
O75          C81   1.295       .  A
O75        Co389   2.049   1_545  S
O76          C82   1.259       .  A
O76         Co91   2.024       .  S
O77          C80   1.269       .  A
O77         Co94   1.894       .  S
O78          C79   1.264       .  A
O78         Co93   2.011       .  S
C79         C203   1.506   1_554  S
C82         C205   1.514   1_554  S
O83          C96   1.247       .  A
O83         Co91   1.979       .  S
O84          C97   1.254       .  A
O84        Co389   1.962   1_545  S
O85          C98   1.280       .  A
O85         Co93   2.079       .  S
O86          C99   1.256       .  A
O86         Co94   1.985       .  S
O87          C99   1.257       .  A
O87         Co92   1.971       .  S
O88          C98   1.248       .  A
O88        Co388   1.991   1_545  S
O89          C96   1.272       .  A
O89         Co94   2.054       .  S
O90          C97   1.257       .  A
O90         Co93   1.987       .  S
Co91        O368   2.031       .  S
Co91        O385   1.991       .  S
Co91         O95   1.968       .  S
Co92        O372   2.049       .  S
Co92        O381   1.962       .  S
Co92         O95   2.153       .  S
Co93        O392   2.041   1_545  S
Co94         O95   2.044       .  S
O95        Co390   2.041       .  S
C96         C210   1.495       .  S
C98         C201   1.498       .  S
C100        C138   1.519       .  S
C101        C267   1.485       .  S
C101        C167   1.502       .  S
C101        C199   1.367       .  D
C102        C296   1.498       .  S
C102        C196   1.510       .  S
C102        C103   1.353       .  D
C103        C248   1.513       .  S
C103        C151   1.509       .  S
C104        C277   1.506       .  S
C104        C180   1.492       .  S
C104        C204   1.376       .  D
C105        C122   1.494       .  S
C106        C280   1.514       .  S
C106        C179   1.490       .  S
C106        C107   1.379       .  D
C107        C265   1.490       .  S
C107        C169   1.509       .  S
C108        C121   1.488       .  S
C109        C251   1.513       .  S
C109        C150   1.514       .  S
C109        C207   1.362       .  D
C110        C140   1.510       .  S
C111        C294   1.495       .  S
C111        C198   1.508       .  S
C111        C209   1.356       .  D
O112        C120   1.254       .  A
O112       Co132   2.029       .  S
O113        C121   1.293       .  A
O113       Co727   2.042   1_455  S
O114        C122   1.267       .  A
O114       Co134   1.908       .  S
O115        C123   1.265       .  A
O115       Co135   2.020       .  S
O116        C122   1.294       .  A
O116       Co133   2.047       .  S
O117        C123   1.254       .  A
O117       Co726   2.019   1_455  S
O118        C121   1.269       .  A
O118       Co135   1.909       .  S
O119        C120   1.266       .  A
O119       Co134   2.017       .  S
C120        C204   1.507       .  S
C123        C207   1.499       .  S
O124        C137   1.246       .  A
O124       Co726   1.981   1_455  S
O125        C138   1.259       .  A
O125       Co133   1.973       .  S
O126        C139   1.280       .  A
O126       Co134   2.063       .  S
O127        C140   1.257       .  A
O127       Co135   1.987       .  S
O128        C140   1.257       .  A
O128       Co727   1.969   1_455  S
O129        C139   1.247       .  A
O129       Co132   1.984       .  S
O130        C137   1.277       .  A
O130       Co135   2.070       .  S
O131        C138   1.257       .  A
O131       Co134   2.000       .  S
Co132       O711   2.019       .  S
Co132       O718   1.981       .  S
Co132       O136   1.975       .  S
Co133       O707   2.042       .  S
Co133       O722   1.969       .  S
Co133       O136   2.151       .  S
Co134       O136   2.043       .  S
Co135       O730   2.053   1_455  S
O136       Co729   2.053       .  S
C137        C209   1.496       .  S
C139        C199   1.499       .  S
O141        C149   1.246       .  A
O141       Co161   1.935       .  S
O142        C150   1.257       .  A
O142       Co162   1.991       .  S
O143        C151   1.254       .  A
O143       Co163   2.015       .  S
O144        C152   1.284       .  A
O144       Co164   2.074       .  S
O145        C151   1.255       .  A
O145       Co162   1.982       .  S
O146        C152   1.244       .  A
O146       Co161   1.938       .  S
O147        C150   1.253       .  A
O147       Co164   2.027       .  S
O148        C149   1.287       .  A
O148       Co163   2.088       .  S
O153        C166   1.265       .  A
O153       Co161   2.028       .  S
O154        C167   1.293       .  A
O154       Co162   2.083       .  S
O155        C168   1.252       .  A
O155       Co163   1.988       .  S
O156        C169   1.262       .  A
O156       Co164   1.877       .  S
O157        C169   1.291       .  A
O157       Co162   2.082       .  S
O158        C168   1.261       .  A
O158       Co161   2.012       .  S
O159        C166   1.252       .  A
O159       Co164   1.991       .  S
O160        C167   1.267       .  A
O160       Co163   1.894       .  S
Co161       O165   2.050       .  S
Co162       O165   2.104       .  S
Co163       O165   2.042       .  S
Co164       O165   2.028       .  S
O170        C178   1.255       .  A
O170       Co487   2.031   1_545  S
O171        C179   1.293       .  A
O171       Co191   2.038       .  S
O172        C180   1.267       .  A
O172       Co192   1.905       .  S
O173        C181   1.264       .  A
O173       Co193   2.026       .  S
O174        C180   1.295       .  A
O174       Co488   2.049   1_545  S
O175        C181   1.259       .  A
O175       Co190   2.024       .  S
O176        C179   1.269       .  A
O176       Co193   1.894       .  S
O177        C178   1.264       .  A
O177       Co192   2.011       .  S
O182        C195   1.247       .  A
O182       Co190   1.979       .  S
O183        C196   1.254       .  A
O183       Co488   1.962   1_545  S
O184        C197   1.280       .  A
O184       Co192   2.079       .  S
O185        C198   1.256       .  A
O185       Co193   1.985       .  S
O186        C198   1.257       .  A
O186       Co191   1.971       .  S
O187        C197   1.248       .  A
O187       Co487   1.991   1_545  S
O188        C195   1.272       .  A
O188       Co193   2.054       .  S
O189        C196   1.257       .  A
O189       Co192   1.987       .  S
Co190       O467   2.031       .  S
Co190       O484   1.991       .  S
Co190       O194   1.968       .  S
Co191       O471   2.049       .  S
Co191       O480   1.962       .  S
Co191       O194   2.153       .  S
Co192       O491   2.041   1_545  S
Co193       O194   2.044       .  S
O194       Co489   2.041       .  S
C199        C237   1.519       .  S
C200        C266   1.502       .  S
C201        C295   1.510   1_554  S
C201        C202   1.353   1_554  D
C202        C250   1.509       .  S
C203        C279   1.492       .  S
C204        C221   1.494       .  S
C205        C278   1.490       .  S
C205        C206   1.379       .  D
C206        C268   1.509       .  S
C207        C220   1.488       .  S
C208        C249   1.514       .  S
C209        C239   1.510       .  S
C210        C297   1.508   1_554  S
O211        C219   1.254       .  A
O211       Co231   2.029       .  S
O212        C220   1.293       .  A
O212       Co826   2.042   1_455  S
O213        C221   1.267       .  A
O213       Co233   1.908       .  S
O214        C222   1.265       .  A
O214       Co234   2.020       .  S
O215        C221   1.294       .  A
O215       Co232   2.047       .  S
O216        C222   1.254       .  A
O216       Co825   2.019   1_455  S
O217        C220   1.269       .  A
O217       Co234   1.909       .  S
O218        C219   1.266       .  A
O218       Co233   2.017       .  S
O223        C236   1.246       .  A
O223       Co825   1.981   1_455  S
O224        C237   1.259       .  A
O224       Co232   1.973       .  S
O225        C238   1.280       .  A
O225       Co233   2.063       .  S
O226        C239   1.257       .  A
O226       Co234   1.987       .  S
O227        C239   1.257       .  A
O227       Co826   1.969   1_455  S
O228        C238   1.247       .  A
O228       Co231   1.984       .  S
O229        C236   1.277       .  A
O229       Co234   2.070       .  S
O230        C237   1.257       .  A
O230       Co233   2.000       .  S
Co231       O810   2.019       .  S
Co231       O817   1.981       .  S
Co231       O235   1.975       .  S
Co232       O806   2.042       .  S
Co232       O821   1.969       .  S
Co232       O235   2.151       .  S
Co233       O235   2.043       .  S
Co234       O829   2.053   1_455  S
O235       Co828   2.053       .  S
O240        C248   1.246       .  A
O240       Co260   1.935       .  S
O241        C249   1.257       .  A
O241       Co261   1.991       .  S
O242        C250   1.254       .  A
O242       Co262   2.015       .  S
O243        C251   1.284       .  A
O243       Co263   2.074       .  S
O244        C250   1.255       .  A
O244       Co261   1.982       .  S
O245        C251   1.244       .  A
O245       Co260   1.938       .  S
O246        C249   1.253       .  A
O246       Co263   2.027       .  S
O247        C248   1.287       .  A
O247       Co262   2.088       .  S
O252        C265   1.265       .  A
O252       Co260   2.028       .  S
O253        C266   1.293       .  A
O253       Co261   2.083       .  S
O254        C267   1.252       .  A
O254       Co262   1.988       .  S
O255        C268   1.262       .  A
O255       Co263   1.877       .  S
O256        C268   1.291       .  A
O256       Co261   2.082       .  S
O257        C267   1.261       .  A
O257       Co260   2.012       .  S
O258        C265   1.252       .  A
O258       Co263   1.991       .  S
O259        C266   1.267       .  A
O259       Co262   1.894       .  S
Co260       O264   2.050       .  S
Co261       O264   2.104       .  S
Co262       O264   2.042       .  S
Co263       O264   2.028       .  S
O269        C277   1.255       .  A
O269       Co586   2.031   1_545  S
O270        C278   1.293       .  A
O270       Co290   2.038       .  S
O271        C279   1.267       .  A
O271       Co291   1.905       .  S
O272        C280   1.264       .  A
O272       Co292   2.026       .  S
O273        C279   1.295       .  A
O273       Co587   2.049   1_545  S
O274        C280   1.259       .  A
O274       Co289   2.024       .  S
O275        C278   1.269       .  A
O275       Co292   1.894       .  S
O276        C277   1.264       .  A
O276       Co291   2.011       .  S
O281        C294   1.247       .  A
O281       Co289   1.979       .  S
O282        C295   1.254       .  A
O282       Co587   1.962   1_545  S
O283        C296   1.280       .  A
O283       Co291   2.079       .  S
O284        C297   1.256       .  A
O284       Co292   1.985       .  S
O285        C297   1.257       .  A
O285       Co290   1.971       .  S
O286        C296   1.248       .  A
O286       Co586   1.991   1_545  S
O287        C294   1.272       .  A
O287       Co292   2.054       .  S
O288        C295   1.257       .  A
O288       Co291   1.987       .  S
Co289       O566   2.031       .  S
Co289       O583   1.991       .  S
Co289       O293   1.968       .  S
Co290       O570   2.049       .  S
Co290       O579   1.962       .  S
Co290       O293   2.153       .  S
Co291       O590   2.041   1_545  S
Co292       O293   2.044       .  S
O293       Co588   2.041       .  S
C298        C535   1.499       .  S
C298        C336   1.519   1_556  S
C298        C497   1.367       .  D
C299        C465   1.485       .  S
C299        C365   1.502       .  S
C299        C397   1.367       .  D
C300        C494   1.498       .  S
C300        C394   1.510       .  S
C300        C301   1.353       .  D
C301        C446   1.513       .  S
C301        C349   1.509       .  S
C302        C475   1.506       .  S
C302        C378   1.492       .  S
C302        C402   1.376       .  D
C303        C516   1.507   1_554  S
C303        C320   1.494       .  S
C303        C500   1.376   1_554  D
C304        C478   1.514       .  S
C304        C377   1.490       .  S
C304        C305   1.379       .  D
C305        C463   1.490       .  S
C305        C367   1.509       .  S
C306        C519   1.499   1_554  S
C306        C319   1.488       .  S
C306        C505   1.362   1_554  D
C307        C449   1.513       .  S
C307        C348   1.514       .  S
C307        C405   1.362       .  D
C308        C533   1.496       .  S
C308        C338   1.510   1_556  S
C308        C507   1.356   1_556  D
C309        C492   1.495       .  S
C309        C396   1.508       .  S
C309        C407   1.356       .  D
O310        C318   1.254       .  A
O310       Co330   2.029       .  S
O311        C319   1.293       .  A
O311       Co925   2.042   1_455  S
O312        C320   1.267       .  A
O312       Co332   1.908       .  S
O313        C321   1.265       .  A
O313       Co333   2.020       .  S
O314        C320   1.294       .  A
O314       Co331   2.047       .  S
O315        C321   1.254       .  A
O315       Co924   2.019   1_455  S
O316        C319   1.269       .  A
O316       Co333   1.909       .  S
O317        C318   1.266       .  A
O317       Co332   2.017       .  S
C318        C402   1.507       .  S
C321        C405   1.499       .  S
O322        C335   1.246       .  A
O322       Co924   1.981   1_455  S
O323        C336   1.259       .  A
O323       Co331   1.973       .  S
O324        C337   1.280       .  A
O324       Co332   2.063       .  S
O325        C338   1.257       .  A
O325       Co333   1.987       .  S
O326        C338   1.257       .  A
O326       Co925   1.969   1_455  S
O327        C337   1.247       .  A
O327       Co330   1.984       .  S
O328        C335   1.277       .  A
O328       Co333   2.070       .  S
O329        C336   1.257       .  A
O329       Co332   2.000       .  S
Co330       O909   2.019       .  S
Co330       O916   1.981       .  S
Co330       O334   1.975       .  S
Co331       O905   2.042       .  S
Co331       O920   1.969       .  S
Co331       O334   2.151       .  S
Co332       O334   2.043       .  S
Co333       O928   2.053   1_455  S
O334       Co927   2.053       .  S
C335        C407   1.496       .  S
C337        C397   1.499       .  S
O339        C347   1.246       .  A
O339       Co359   1.935       .  S
O340        C348   1.257       .  A
O340       Co360   1.991       .  S
O341        C349   1.254       .  A
O341       Co361   2.015       .  S
O342        C350   1.284       .  A
O342       Co362   2.074       .  S
O343        C349   1.255       .  A
O343       Co360   1.982       .  S
O344        C350   1.244       .  A
O344       Co359   1.938       .  S
O345        C348   1.253       .  A
O345       Co362   2.027       .  S
O346        C347   1.287       .  A
O346       Co361   2.088       .  S
C347        C499   1.513   1_554  S
C350        C505   1.513   1_554  S
O351        C364   1.265       .  A
O351       Co359   2.028       .  S
O352        C365   1.293       .  A
O352       Co360   2.083       .  S
O353        C366   1.252       .  A
O353       Co361   1.988       .  S
O354        C367   1.262       .  A
O354       Co362   1.877       .  S
O355        C367   1.291       .  A
O355       Co360   2.082       .  S
O356        C366   1.261       .  A
O356       Co359   2.012       .  S
O357        C364   1.252       .  A
O357       Co362   1.991       .  S
O358        C365   1.267       .  A
O358       Co361   1.894       .  S
Co359       O363   2.050       .  S
Co360       O363   2.104       .  S
Co361       O363   2.042       .  S
Co362       O363   2.028       .  S
C364        C503   1.490   1_554  S
C366        C497   1.485   1_554  S
O368        C376   1.255       .  A
O369        C377   1.293       .  A
O369       Co389   2.038       .  S
O370        C378   1.267       .  A
O370       Co390   1.905       .  S
O371        C379   1.264       .  A
O371       Co391   2.026       .  S
O372        C378   1.295       .  A
O373        C379   1.259       .  A
O373       Co388   2.024       .  S
O374        C377   1.269       .  A
O374       Co391   1.894       .  S
O375        C376   1.264       .  A
O375       Co390   2.011       .  S
C376        C500   1.506   1_554  S
C379        C502   1.514   1_554  S
O380        C393   1.247       .  A
O380       Co388   1.979       .  S
O381        C394   1.254       .  A
O382        C395   1.280       .  A
O382       Co390   2.079       .  S
O383        C396   1.256       .  A
O383       Co391   1.985       .  S
O384        C396   1.257       .  A
O384       Co389   1.971       .  S
O385        C395   1.248       .  A
O386        C393   1.272       .  A
O386       Co391   2.054       .  S
O387        C394   1.257       .  A
O387       Co390   1.987       .  S
Co388       O392   1.968       .  S
Co389       O392   2.153       .  S
Co391       O392   2.044       .  S
C393        C507   1.495       .  S
C395        C498   1.498       .  S
C397        C435   1.519       .  S
C398        C564   1.485       .  S
C398        C464   1.502       .  S
C398        C496   1.367       .  D
C399        C593   1.498       .  S
C399        C493   1.510       .  S
C399        C400   1.354       .  D
C400        C545   1.513       .  S
C400        C448   1.509       .  S
C401        C574   1.506       .  S
C401        C477   1.492       .  S
C401        C501   1.376       .  D
C402        C419   1.494       .  S
C403        C577   1.514       .  S
C403        C476   1.490       .  S
C403        C404   1.379       .  D
C404        C562   1.490       .  S
C404        C466   1.509       .  S
C405        C418   1.488       .  S
C406        C548   1.513       .  S
C406        C447   1.514       .  S
C406        C504   1.362       .  D
C407        C437   1.510       .  S
C408        C591   1.495       .  S
C408        C495   1.508       .  S
C408        C506   1.356       .  D
O409        C417   1.254       .  A
O409       Co429   2.029       .  S
O410        C418   1.293       .  A
O410      Co1024   2.042   1_455  S
O411        C419   1.267       .  A
O411       Co431   1.908       .  S
O412        C420   1.265       .  A
O412       Co432   2.020       .  S
O413        C419   1.294       .  A
O413       Co430   2.047       .  S
O414        C420   1.254       .  A
O414      Co1023   2.019   1_455  S
O415        C418   1.269       .  A
O415       Co432   1.909       .  S
O416        C417   1.266       .  A
O416       Co431   2.017       .  S
C417        C501   1.507       .  S
C420        C504   1.499       .  S
O421        C434   1.246       .  A
O421      Co1023   1.981   1_455  S
O422        C435   1.259       .  A
O422       Co430   1.973       .  S
O423        C436   1.280       .  A
O423       Co431   2.063       .  S
O424        C437   1.257       .  A
O424       Co432   1.987       .  S
O425        C437   1.257       .  A
O425      Co1024   1.969   1_455  S
O426        C436   1.247       .  A
O426       Co429   1.984       .  S
O427        C434   1.277       .  A
O427       Co432   2.070       .  S
O428        C435   1.257       .  A
O428       Co431   2.000       .  S
Co429      O1008   2.019       .  S
Co429      O1015   1.981       .  S
Co429       O433   1.975       .  S
Co430      O1004   2.042       .  S
Co430      O1019   1.969       .  S
Co430       O433   2.151       .  S
Co431       O433   2.043       .  S
Co432      O1027   2.053   1_455  S
O433      Co1026   2.053       .  S
C434        C506   1.496       .  S
C436        C496   1.499       .  S
O438        C446   1.246       .  A
O438       Co458   1.935       .  S
O439        C447   1.257       .  A
O439       Co459   1.991       .  S
O440        C448   1.254       .  A
O440       Co460   2.015       .  S
O441        C449   1.284       .  A
O441       Co461   2.074       .  S
O442        C448   1.255       .  A
O442       Co459   1.982       .  S
O443        C449   1.244       .  A
O443       Co458   1.938       .  S
O444        C447   1.253       .  A
O444       Co461   2.027       .  S
O445        C446   1.287       .  A
O445       Co460   2.088       .  S
O450        C463   1.265       .  A
O450       Co458   2.028       .  S
O451        C464   1.293       .  A
O451       Co459   2.083       .  S
O452        C465   1.252       .  A
O452       Co460   1.988       .  S
O453        C466   1.262       .  A
O453       Co461   1.877       .  S
O454        C466   1.291       .  A
O454       Co459   2.082       .  S
O455        C465   1.261       .  A
O455       Co458   2.012       .  S
O456        C463   1.252       .  A
O456       Co461   1.991       .  S
O457        C464   1.267       .  A
O457       Co460   1.894       .  S
Co458       O462   2.050       .  S
Co459       O462   2.104       .  S
Co460       O462   2.042       .  S
Co461       O462   2.028       .  S
O467        C475   1.255       .  A
O468        C476   1.293       .  A
O468       Co488   2.038       .  S
O469        C477   1.267       .  A
O469       Co489   1.905       .  S
O470        C478   1.264       .  A
O470       Co490   2.026       .  S
O471        C477   1.295       .  A
O472        C478   1.259       .  A
O472       Co487   2.024       .  S
O473        C476   1.269       .  A
O473       Co490   1.894       .  S
O474        C475   1.264       .  A
O474       Co489   2.011       .  S
O479        C492   1.247       .  A
O479       Co487   1.979       .  S
O480        C493   1.254       .  A
O481        C494   1.280       .  A
O481       Co489   2.079       .  S
O482        C495   1.256       .  A
O482       Co490   1.985       .  S
O483        C495   1.257       .  A
O483       Co488   1.971       .  S
O484        C494   1.248       .  A
O485        C492   1.272       .  A
O485       Co490   2.054       .  S
O486        C493   1.257       .  A
O486       Co489   1.987       .  S
Co487       O491   1.968       .  S
Co488       O491   2.153       .  S
Co490       O491   2.044       .  S
C496        C534   1.519       .  S
C497        C563   1.502       .  S
C498        C592   1.510   1_554  S
C498        C499   1.353   1_554  D
C499        C547   1.509       .  S
C500        C576   1.492       .  S
C501        C518   1.494       .  S
C502        C575   1.490       .  S
C502        C503   1.379       .  D
C503        C565   1.509       .  S
C504        C517   1.488       .  S
C505        C546   1.514       .  S
C506        C536   1.510       .  S
C507        C594   1.508   1_554  S
O508        C516   1.254       .  A
O508       Co528   2.029       .  S
O509        C517   1.293       .  A
O509      Co1123   2.042   1_455  S
O510        C518   1.267       .  A
O510       Co530   1.908       .  S
O511        C519   1.265       .  A
O511       Co531   2.020       .  S
O512        C518   1.294       .  A
O512       Co529   2.047       .  S
O513        C519   1.254       .  A
O513      Co1122   2.019   1_455  S
O514        C517   1.269       .  A
O514       Co531   1.909       .  S
O515        C516   1.266       .  A
O515       Co530   2.017       .  S
O520        C533   1.246       .  A
O520      Co1122   1.981   1_455  S
O521        C534   1.259       .  A
O521       Co529   1.973       .  S
O522        C535   1.280       .  A
O522       Co530   2.063       .  S
O523        C536   1.257       .  A
O523       Co531   1.987       .  S
O524        C536   1.257       .  A
O524      Co1123   1.969   1_455  S
O525        C535   1.247       .  A
O525       Co528   1.984       .  S
O526        C533   1.277       .  A
O526       Co531   2.070       .  S
O527        C534   1.257       .  A
O527       Co530   2.000       .  S
Co528      O1107   2.019       .  S
Co528      O1114   1.981       .  S
Co528       O532   1.975       .  S
Co529      O1103   2.042       .  S
Co529      O1118   1.969       .  S
Co529       O532   2.151       .  S
Co530       O532   2.043       .  S
Co531      O1126   2.053   1_455  S
O532      Co1125   2.053       .  S
O537        C545   1.246       .  A
O537       Co557   1.935       .  S
O538        C546   1.257       .  A
O538       Co558   1.991       .  S
O539        C547   1.254       .  A
O539       Co559   2.015       .  S
O540        C548   1.284       .  A
O540       Co560   2.074       .  S
O541        C547   1.255       .  A
O541       Co558   1.982       .  S
O542        C548   1.244       .  A
O542       Co557   1.938       .  S
O543        C546   1.253       .  A
O543       Co560   2.027       .  S
O544        C545   1.287       .  A
O544       Co559   2.088       .  S
O549        C562   1.265       .  A
O549       Co557   2.028       .  S
O550        C563   1.293       .  A
O550       Co558   2.083       .  S
O551        C564   1.252       .  A
O551       Co559   1.988       .  S
O552        C565   1.262       .  A
O552       Co560   1.877       .  S
O553        C565   1.291       .  A
O553       Co558   2.082       .  S
O554        C564   1.261       .  A
O554       Co557   2.012       .  S
O555        C562   1.252       .  A
O555       Co560   1.991       .  S
O556        C563   1.267       .  A
O556       Co559   1.894       .  S
Co557       O561   2.050       .  S
Co558       O561   2.104       .  S
Co559       O561   2.042       .  S
Co560       O561   2.028       .  S
O566        C574   1.255       .  A
O567        C575   1.293       .  A
O567       Co587   2.038       .  S
O568        C576   1.267       .  A
O568       Co588   1.905       .  S
O569        C577   1.264       .  A
O569       Co589   2.026       .  S
O570        C576   1.295       .  A
O571        C577   1.259       .  A
O571       Co586   2.024       .  S
O572        C575   1.269       .  A
O572       Co589   1.894       .  S
O573        C574   1.264       .  A
O573       Co588   2.011       .  S
O578        C591   1.247       .  A
O578       Co586   1.979       .  S
O579        C592   1.254       .  A
O580        C593   1.280       .  A
O580       Co588   2.079       .  S
O581        C594   1.256       .  A
O581       Co589   1.985       .  S
O582        C594   1.257       .  A
O582       Co587   1.971       .  S
O583        C593   1.248       .  A
O584        C591   1.272       .  A
O584       Co589   2.054       .  S
O585        C592   1.257       .  A
O585       Co588   1.987       .  S
Co586       O590   1.968       .  S
Co587       O590   2.153       .  S
Co589       O590   2.044       .  S
C595        C832   1.499       .  S
C595        C633   1.519   1_556  S
C595        C794   1.367       .  D
C596        C762   1.485       .  S
C596        C662   1.502       .  S
C596        C694   1.367       .  D
C597        C791   1.498       .  S
C597        C691   1.510       .  S
C597        C598   1.353       .  D
C598        C743   1.513       .  S
C598        C646   1.509       .  S
C599        C772   1.506       .  S
C599        C675   1.492       .  S
C599        C699   1.376       .  D
C600        C813   1.507   1_554  S
C600        C617   1.494       .  S
C600        C797   1.376   1_554  D
C601        C775   1.514       .  S
C601        C674   1.490       .  S
C601        C602   1.379       .  D
C602        C760   1.490       .  S
C602        C664   1.509       .  S
C603        C816   1.499   1_554  S
C603        C616   1.488       .  S
C603        C802   1.362   1_554  D
C604        C746   1.513       .  S
C604        C645   1.514       .  S
C604        C702   1.362       .  D
C605        C830   1.496       .  S
C605        C635   1.510   1_556  S
C605        C804   1.356   1_556  D
C606        C789   1.495       .  S
C606        C693   1.508       .  S
C606        C704   1.356       .  D
O607        C615   1.254       .  A
O607       Co627   2.029       .  S
O608        C616   1.293       .  A
O609        C617   1.267       .  A
O609       Co629   1.908       .  S
O610        C618   1.265       .  A
O610       Co630   2.020       .  S
O611        C617   1.294       .  A
O611       Co628   2.047       .  S
O612        C618   1.254       .  A
O613        C616   1.269       .  A
O613       Co630   1.909       .  S
O614        C615   1.266       .  A
O614       Co629   2.017       .  S
C615        C699   1.507       .  S
C618        C702   1.499       .  S
O619        C632   1.246       .  A
O620        C633   1.259       .  A
O620       Co628   1.973       .  S
O621        C634   1.280       .  A
O621       Co629   2.063       .  S
O622        C635   1.257       .  A
O622       Co630   1.987       .  S
O623        C635   1.257       .  A
O624        C634   1.247       .  A
O624       Co627   1.984       .  S
O625        C632   1.277       .  A
O625       Co630   2.070       .  S
O626        C633   1.257       .  A
O626       Co629   2.000       .  S
Co627       O631   1.975       .  S
Co628       O631   2.151       .  S
Co629       O631   2.043       .  S
C632        C704   1.496       .  S
C634        C694   1.499       .  S
O636        C644   1.246       .  A
O636       Co656   1.935       .  S
O637        C645   1.257       .  A
O637       Co657   1.991       .  S
O638        C646   1.254       .  A
O638       Co658   2.015       .  S
O639        C647   1.284       .  A
O639       Co659   2.074       .  S
O640        C646   1.255       .  A
O640       Co657   1.982       .  S
O641        C647   1.244       .  A
O641       Co656   1.938       .  S
O642        C645   1.253       .  A
O642       Co659   2.027       .  S
O643        C644   1.287       .  A
O643       Co658   2.088       .  S
C644        C796   1.513   1_554  S
C647        C802   1.513   1_554  S
O648        C661   1.265       .  A
O648       Co656   2.028       .  S
O649        C662   1.293       .  A
O649       Co657   2.083       .  S
O650        C663   1.252       .  A
O650       Co658   1.988       .  S
O651        C664   1.262       .  A
O651       Co659   1.877       .  S
O652        C664   1.291       .  A
O652       Co657   2.082       .  S
O653        C663   1.261       .  A
O653       Co656   2.012       .  S
O654        C661   1.252       .  A
O654       Co659   1.991       .  S
O655        C662   1.267       .  A
O655       Co658   1.894       .  S
Co656       O660   2.050       .  S
Co657       O660   2.104       .  S
Co658       O660   2.042       .  S
Co659       O660   2.028       .  S
C661        C800   1.490   1_554  S
C663        C794   1.485   1_554  S
O665        C673   1.255       .  A
O665       Co982   2.031   1_545  S
O666        C674   1.293       .  A
O666       Co686   2.038       .  S
O667        C675   1.267       .  A
O667       Co687   1.905       .  S
O668        C676   1.264       .  A
O668       Co688   2.026       .  S
O669        C675   1.295       .  A
O669       Co983   2.049   1_545  S
O670        C676   1.259       .  A
O670       Co685   2.024       .  S
O671        C674   1.269       .  A
O671       Co688   1.894       .  S
O672        C673   1.264       .  A
O672       Co687   2.011       .  S
C673        C797   1.506   1_554  S
C676        C799   1.514   1_554  S
O677        C690   1.247       .  A
O677       Co685   1.979       .  S
O678        C691   1.254       .  A
O678       Co983   1.962   1_545  S
O679        C692   1.280       .  A
O679       Co687   2.079       .  S
O680        C693   1.256       .  A
O680       Co688   1.985       .  S
O681        C693   1.257       .  A
O681       Co686   1.971       .  S
O682        C692   1.248       .  A
O682       Co982   1.991   1_545  S
O683        C690   1.272       .  A
O683       Co688   2.054       .  S
O684        C691   1.257       .  A
O684       Co687   1.987       .  S
Co685       O962   2.031       .  S
Co685       O979   1.991       .  S
Co685       O689   1.968       .  S
Co686       O966   2.049       .  S
Co686       O975   1.962       .  S
Co686       O689   2.153       .  S
Co687       O986   2.041   1_545  S
Co688       O689   2.044       .  S
O689       Co984   2.041       .  S
C690        C804   1.495       .  S
C692        C795   1.498       .  S
C694        C732   1.519       .  S
C695        C861   1.485       .  S
C695        C761   1.502       .  S
C695        C793   1.367       .  D
C696        C890   1.498       .  S
C696        C790   1.510       .  S
C696        C697   1.354       .  D
C697        C842   1.513       .  S
C697        C745   1.509       .  S
C698        C871   1.506       .  S
C698        C774   1.492       .  S
C698        C798   1.376       .  D
C699        C716   1.494       .  S
C700        C874   1.514       .  S
C700        C773   1.490       .  S
C700        C701   1.379       .  D
C701        C859   1.490       .  S
C701        C763   1.509       .  S
C702        C715   1.488       .  S
C703        C845   1.513       .  S
C703        C744   1.514       .  S
C703        C801   1.362       .  D
C704        C734   1.510       .  S
C705        C888   1.495       .  S
C705        C792   1.508       .  S
C705        C803   1.356       .  D
O706        C714   1.254       .  A
O706       Co726   2.029       .  S
O707        C715   1.293       .  A
O708        C716   1.267       .  A
O708       Co728   1.908       .  S
O709        C717   1.265       .  A
O709       Co729   2.020       .  S
O710        C716   1.294       .  A
O710       Co727   2.047       .  S
O711        C717   1.254       .  A
O712        C715   1.269       .  A
O712       Co729   1.909       .  S
O713        C714   1.266       .  A
O713       Co728   2.017       .  S
C714        C798   1.507       .  S
C717        C801   1.499       .  S
O718        C731   1.246       .  A
O719        C732   1.259       .  A
O719       Co727   1.973       .  S
O720        C733   1.280       .  A
O720       Co728   2.063       .  S
O721        C734   1.257       .  A
O721       Co729   1.987       .  S
O722        C734   1.257       .  A
O723        C733   1.247       .  A
O723       Co726   1.984       .  S
O724        C731   1.277       .  A
O724       Co729   2.070       .  S
O725        C732   1.257       .  A
O725       Co728   2.000       .  S
Co726       O730   1.975       .  S
Co727       O730   2.151       .  S
Co728       O730   2.043       .  S
C731        C803   1.496       .  S
C733        C793   1.499       .  S
O735        C743   1.246       .  A
O735       Co755   1.935       .  S
O736        C744   1.257       .  A
O736       Co756   1.991       .  S
O737        C745   1.254       .  A
O737       Co757   2.015       .  S
O738        C746   1.284       .  A
O738       Co758   2.074       .  S
O739        C745   1.255       .  A
O739       Co756   1.982       .  S
O740        C746   1.244       .  A
O740       Co755   1.938       .  S
O741        C744   1.253       .  A
O741       Co758   2.027       .  S
O742        C743   1.287       .  A
O742       Co757   2.088       .  S
O747        C760   1.265       .  A
O747       Co755   2.028       .  S
O748        C761   1.293       .  A
O748       Co756   2.083       .  S
O749        C762   1.252       .  A
O749       Co757   1.988       .  S
O750        C763   1.262       .  A
O750       Co758   1.877       .  S
O751        C763   1.291       .  A
O751       Co756   2.082       .  S
O752        C762   1.261       .  A
O752       Co755   2.012       .  S
O753        C760   1.252       .  A
O753       Co758   1.991       .  S
O754        C761   1.267       .  A
O754       Co757   1.894       .  S
Co755       O759   2.050       .  S
Co756       O759   2.104       .  S
Co757       O759   2.042       .  S
Co758       O759   2.028       .  S
O764        C772   1.255       .  A
O764      Co1081   2.031   1_545  S
O765        C773   1.293       .  A
O765       Co785   2.038       .  S
O766        C774   1.267       .  A
O766       Co786   1.905       .  S
O767        C775   1.264       .  A
O767       Co787   2.026       .  S
O768        C774   1.295       .  A
O768      Co1082   2.049   1_545  S
O769        C775   1.259       .  A
O769       Co784   2.024       .  S
O770        C773   1.269       .  A
O770       Co787   1.894       .  S
O771        C772   1.264       .  A
O771       Co786   2.011       .  S
O776        C789   1.247       .  A
O776       Co784   1.979       .  S
O777        C790   1.254       .  A
O777      Co1082   1.962   1_545  S
O778        C791   1.280       .  A
O778       Co786   2.079       .  S
O779        C792   1.256       .  A
O779       Co787   1.985       .  S
O780        C792   1.257       .  A
O780       Co785   1.971       .  S
O781        C791   1.248       .  A
O781      Co1081   1.991   1_545  S
O782        C789   1.272       .  A
O782       Co787   2.054       .  S
O783        C790   1.257       .  A
O783       Co786   1.987       .  S
Co784      O1061   2.031       .  S
Co784      O1078   1.991       .  S
Co784       O788   1.968       .  S
Co785      O1065   2.049       .  S
Co785      O1074   1.962       .  S
Co785       O788   2.153       .  S
Co786      O1085   2.041   1_545  S
Co787       O788   2.044       .  S
O788      Co1083   2.041       .  S
C793        C831   1.519       .  S
C794        C860   1.502       .  S
C795        C889   1.510   1_554  S
C795        C796   1.353   1_554  D
C796        C844   1.509       .  S
C797        C873   1.492       .  S
C798        C815   1.494       .  S
C799        C872   1.490       .  S
C799        C800   1.379       .  D
C800        C862   1.509       .  S
C801        C814   1.488       .  S
C802        C843   1.514       .  S
C803        C833   1.510       .  S
C804        C891   1.508   1_554  S
O805        C813   1.254       .  A
O805       Co825   2.029       .  S
O806        C814   1.293       .  A
O807        C815   1.267       .  A
O807       Co827   1.908       .  S
O808        C816   1.265       .  A
O808       Co828   2.020       .  S
O809        C815   1.294       .  A
O809       Co826   2.047       .  S
O810        C816   1.254       .  A
O811        C814   1.269       .  A
O811       Co828   1.909       .  S
O812        C813   1.266       .  A
O812       Co827   2.017       .  S
O817        C830   1.246       .  A
O818        C831   1.259       .  A
O818       Co826   1.973       .  S
O819        C832   1.280       .  A
O819       Co827   2.063       .  S
O820        C833   1.257       .  A
O820       Co828   1.987       .  S
O821        C833   1.257       .  A
O822        C832   1.247       .  A
O822       Co825   1.984       .  S
O823        C830   1.277       .  A
O823       Co828   2.070       .  S
O824        C831   1.257       .  A
O824       Co827   2.000       .  S
Co825       O829   1.975       .  S
Co826       O829   2.151       .  S
Co827       O829   2.043       .  S
O834        C842   1.246       .  A
O834       Co854   1.935       .  S
O835        C843   1.257       .  A
O835       Co855   1.991       .  S
O836        C844   1.254       .  A
O836       Co856   2.015       .  S
O837        C845   1.284       .  A
O837       Co857   2.074       .  S
O838        C844   1.255       .  A
O838       Co855   1.982       .  S
O839        C845   1.244       .  A
O839       Co854   1.938       .  S
O840        C843   1.253       .  A
O840       Co857   2.027       .  S
O841        C842   1.287       .  A
O841       Co856   2.088       .  S
O846        C859   1.265       .  A
O846       Co854   2.028       .  S
O847        C860   1.293       .  A
O847       Co855   2.083       .  S
O848        C861   1.252       .  A
O848       Co856   1.988       .  S
O849        C862   1.262       .  A
O849       Co857   1.877       .  S
O850        C862   1.291       .  A
O850       Co855   2.082       .  S
O851        C861   1.261       .  A
O851       Co854   2.012       .  S
O852        C859   1.252       .  A
O852       Co857   1.991       .  S
O853        C860   1.267       .  A
O853       Co856   1.894       .  S
Co854       O858   2.050       .  S
Co855       O858   2.104       .  S
Co856       O858   2.042       .  S
Co857       O858   2.028       .  S
O863        C871   1.255       .  A
O863      Co1180   2.031   1_545  S
O864        C872   1.293       .  A
O864       Co884   2.038       .  S
O865        C873   1.267       .  A
O865       Co885   1.905       .  S
O866        C874   1.264       .  A
O866       Co886   2.026       .  S
O867        C873   1.295       .  A
O867      Co1181   2.049   1_545  S
O868        C874   1.259       .  A
O868       Co883   2.024       .  S
O869        C872   1.269       .  A
O869       Co886   1.894       .  S
O870        C871   1.264       .  A
O870       Co885   2.011       .  S
O875        C888   1.247       .  A
O875       Co883   1.979       .  S
O876        C889   1.254       .  A
O876      Co1181   1.962   1_545  S
O877        C890   1.280       .  A
O877       Co885   2.079       .  S
O878        C891   1.256       .  A
O878       Co886   1.985       .  S
O879        C891   1.257       .  A
O879       Co884   1.971       .  S
O880        C890   1.248       .  A
O880      Co1180   1.991   1_545  S
O881        C888   1.272       .  A
O881       Co886   2.054       .  S
O882        C889   1.257       .  A
O882       Co885   1.987       .  S
Co883      O1160   2.031       .  S
Co883      O1177   1.991       .  S
Co883       O887   1.968       .  S
Co884      O1164   2.049       .  S
Co884      O1173   1.962       .  S
Co884       O887   2.153       .  S
Co885      O1184   2.041   1_545  S
Co886       O887   2.044       .  S
O887      Co1182   2.041       .  S
C892       C1129   1.499       .  S
C892        C930   1.519   1_556  S
C892       C1091   1.367       .  D
C893       C1059   1.485       .  S
C893        C959   1.502       .  S
C893        C991   1.367       .  D
C894       C1088   1.498       .  S
C894        C988   1.510       .  S
C894        C895   1.353       .  D
C895       C1040   1.513       .  S
C895        C943   1.509       .  S
C896       C1069   1.506       .  S
C896        C972   1.492       .  S
C896        C996   1.376       .  D
C897       C1110   1.507   1_554  S
C897        C914   1.494       .  S
C897       C1094   1.376   1_554  D
C898       C1072   1.514       .  S
C898        C971   1.490       .  S
C898        C899   1.379       .  D
C899       C1057   1.490       .  S
C899        C961   1.509       .  S
C900       C1113   1.499   1_554  S
C900        C913   1.488       .  S
C900       C1099   1.362   1_554  D
C901       C1043   1.513       .  S
C901        C942   1.514       .  S
C901        C999   1.362       .  D
C902       C1127   1.496       .  S
C902        C932   1.510   1_556  S
C902       C1101   1.356   1_556  D
C903       C1086   1.495       .  S
C903        C990   1.508       .  S
C903       C1001   1.356       .  D
O904        C912   1.254       .  A
O904       Co924   2.029       .  S
O905        C913   1.293       .  A
O906        C914   1.267       .  A
O906       Co926   1.908       .  S
O907        C915   1.265       .  A
O907       Co927   2.020       .  S
O908        C914   1.294       .  A
O908       Co925   2.047       .  S
O909        C915   1.254       .  A
O910        C913   1.269       .  A
O910       Co927   1.909       .  S
O911        C912   1.266       .  A
O911       Co926   2.017       .  S
C912        C996   1.507       .  S
C915        C999   1.499       .  S
O916        C929   1.246       .  A
O917        C930   1.259       .  A
O917       Co925   1.973       .  S
O918        C931   1.280       .  A
O918       Co926   2.063       .  S
O919        C932   1.257       .  A
O919       Co927   1.987       .  S
O920        C932   1.257       .  A
O921        C931   1.247       .  A
O921       Co924   1.984       .  S
O922        C929   1.277       .  A
O922       Co927   2.070       .  S
O923        C930   1.257       .  A
O923       Co926   2.000       .  S
Co924       O928   1.975       .  S
Co925       O928   2.151       .  S
Co926       O928   2.043       .  S
C929       C1001   1.496       .  S
C931        C991   1.499       .  S
O933        C941   1.246       .  A
O933       Co953   1.935       .  S
O934        C942   1.257       .  A
O934       Co954   1.991       .  S
O935        C943   1.254       .  A
O935       Co955   2.015       .  S
O936        C944   1.284       .  A
O936       Co956   2.074       .  S
O937        C943   1.255       .  A
O937       Co954   1.982       .  S
O938        C944   1.244       .  A
O938       Co953   1.938       .  S
O939        C942   1.253       .  A
O939       Co956   2.027       .  S
O940        C941   1.287       .  A
O940       Co955   2.088       .  S
C941       C1093   1.513   1_554  S
C944       C1099   1.513   1_554  S
O945        C958   1.265       .  A
O945       Co953   2.028       .  S
O946        C959   1.293       .  A
O946       Co954   2.083       .  S
O947        C960   1.252       .  A
O947       Co955   1.988       .  S
O948        C961   1.262       .  A
O948       Co956   1.877       .  S
O949        C961   1.291       .  A
O949       Co954   2.082       .  S
O950        C960   1.261       .  A
O950       Co953   2.012       .  S
O951        C958   1.252       .  A
O951       Co956   1.991       .  S
O952        C959   1.267       .  A
O952       Co955   1.894       .  S
Co953       O957   2.050       .  S
Co954       O957   2.104       .  S
Co955       O957   2.042       .  S
Co956       O957   2.028       .  S
C958       C1097   1.490   1_554  S
C960       C1091   1.485   1_554  S
O962        C970   1.255       .  A
O963        C971   1.293       .  A
O963       Co983   2.038       .  S
O964        C972   1.267       .  A
O964       Co984   1.905       .  S
O965        C973   1.264       .  A
O965       Co985   2.026       .  S
O966        C972   1.295       .  A
O967        C973   1.259       .  A
O967       Co982   2.024       .  S
O968        C971   1.269       .  A
O968       Co985   1.894       .  S
O969        C970   1.264       .  A
O969       Co984   2.011       .  S
C970       C1094   1.506   1_554  S
C973       C1096   1.514   1_554  S
O974        C987   1.247       .  A
O974       Co982   1.979       .  S
O975        C988   1.254       .  A
O976        C989   1.280       .  A
O976       Co984   2.079       .  S
O977        C990   1.256       .  A
O977       Co985   1.985       .  S
O978        C990   1.257       .  A
O978       Co983   1.971       .  S
O979        C989   1.248       .  A
O980        C987   1.272       .  A
O980       Co985   2.054       .  S
O981        C988   1.257       .  A
O981       Co984   1.987       .  S
Co982       O986   1.968       .  S
Co983       O986   2.153       .  S
Co985       O986   2.044       .  S
C987       C1101   1.495       .  S
C989       C1092   1.498       .  S
C991       C1029   1.519       .  S
C992       C1158   1.485       .  S
C992       C1058   1.502       .  S
C992       C1090   1.367       .  D
C993       C1187   1.498       .  S
C993       C1087   1.510       .  S
C993        C994   1.354       .  D
C994       C1139   1.513       .  S
C994       C1042   1.509       .  S
C995       C1168   1.506       .  S
C995       C1071   1.492       .  S
C995       C1095   1.376       .  D
C996       C1013   1.494       .  S
C997       C1171   1.514       .  S
C997       C1070   1.490       .  S
C997        C998   1.379       .  D
C998       C1156   1.490       .  S
C998       C1060   1.509       .  S
C999       C1012   1.488       .  S
C1000      C1142   1.513       .  S
C1000      C1041   1.514       .  S
C1000      C1098   1.362       .  D
C1001      C1031   1.510       .  S
C1002      C1185   1.495       .  S
C1002      C1089   1.508       .  S
C1002      C1100   1.356       .  D
O1003      C1011   1.254       .  A
O1003     Co1023   2.029       .  S
O1004      C1012   1.293       .  A
O1005      C1013   1.267       .  A
O1005     Co1025   1.908       .  S
O1006      C1014   1.265       .  A
O1006     Co1026   2.020       .  S
O1007      C1013   1.294       .  A
O1007     Co1024   2.047       .  S
O1008      C1014   1.254       .  A
O1009      C1012   1.269       .  A
O1009     Co1026   1.909       .  S
O1010      C1011   1.266       .  A
O1010     Co1025   2.017       .  S
C1011      C1095   1.507       .  S
C1014      C1098   1.499       .  S
O1015      C1028   1.246       .  A
O1016      C1029   1.259       .  A
O1016     Co1024   1.973       .  S
O1017      C1030   1.280       .  A
O1017     Co1025   2.063       .  S
O1018      C1031   1.257       .  A
O1018     Co1026   1.987       .  S
O1019      C1031   1.257       .  A
O1020      C1030   1.247       .  A
O1020     Co1023   1.984       .  S
O1021      C1028   1.277       .  A
O1021     Co1026   2.070       .  S
O1022      C1029   1.257       .  A
O1022     Co1025   2.000       .  S
Co1023     O1027   1.975       .  S
Co1024     O1027   2.151       .  S
Co1025     O1027   2.043       .  S
C1028      C1100   1.496       .  S
C1030      C1090   1.499       .  S
O1032      C1040   1.246       .  A
O1032     Co1052   1.935       .  S
O1033      C1041   1.257       .  A
O1033     Co1053   1.991       .  S
O1034      C1042   1.254       .  A
O1034     Co1054   2.015       .  S
O1035      C1043   1.284       .  A
O1035     Co1055   2.074       .  S
O1036      C1042   1.255       .  A
O1036     Co1053   1.982       .  S
O1037      C1043   1.244       .  A
O1037     Co1052   1.938       .  S
O1038      C1041   1.253       .  A
O1038     Co1055   2.027       .  S
O1039      C1040   1.287       .  A
O1039     Co1054   2.088       .  S
O1044      C1057   1.265       .  A
O1044     Co1052   2.028       .  S
O1045      C1058   1.293       .  A
O1045     Co1053   2.083       .  S
O1046      C1059   1.252       .  A
O1046     Co1054   1.988       .  S
O1047      C1060   1.262       .  A
O1047     Co1055   1.877       .  S
O1048      C1060   1.291       .  A
O1048     Co1053   2.082       .  S
O1049      C1059   1.261       .  A
O1049     Co1052   2.012       .  S
O1050      C1057   1.252       .  A
O1050     Co1055   1.991       .  S
O1051      C1058   1.267       .  A
O1051     Co1054   1.894       .  S
Co1052     O1056   2.050       .  S
Co1053     O1056   2.104       .  S
Co1054     O1056   2.042       .  S
Co1055     O1056   2.028       .  S
O1061      C1069   1.255       .  A
O1062      C1070   1.293       .  A
O1062     Co1082   2.038       .  S
O1063      C1071   1.267       .  A
O1063     Co1083   1.905       .  S
O1064      C1072   1.264       .  A
O1064     Co1084   2.026       .  S
O1065      C1071   1.295       .  A
O1066      C1072   1.259       .  A
O1066     Co1081   2.024       .  S
O1067      C1070   1.269       .  A
O1067     Co1084   1.894       .  S
O1068      C1069   1.264       .  A
O1068     Co1083   2.011       .  S
O1073      C1086   1.247       .  A
O1073     Co1081   1.979       .  S
O1074      C1087   1.254       .  A
O1075      C1088   1.280       .  A
O1075     Co1083   2.079       .  S
O1076      C1089   1.256       .  A
O1076     Co1084   1.985       .  S
O1077      C1089   1.257       .  A
O1077     Co1082   1.971       .  S
O1078      C1088   1.248       .  A
O1079      C1086   1.272       .  A
O1079     Co1084   2.054       .  S
O1080      C1087   1.257       .  A
O1080     Co1083   1.987       .  S
Co1081     O1085   1.968       .  S
Co1082     O1085   2.153       .  S
Co1084     O1085   2.044       .  S
C1090      C1128   1.519       .  S
C1091      C1157   1.502       .  S
C1092      C1186   1.510   1_554  S
C1092      C1093   1.354   1_554  D
C1093      C1141   1.509       .  S
C1094      C1170   1.492       .  S
C1095      C1112   1.494       .  S
C1096      C1169   1.490       .  S
C1096      C1097   1.379       .  D
C1097      C1159   1.509       .  S
C1098      C1111   1.488       .  S
C1099      C1140   1.514       .  S
C1100      C1130   1.510       .  S
C1101      C1188   1.508   1_554  S
O1102      C1110   1.254       .  A
O1102     Co1122   2.029       .  S
O1103      C1111   1.293       .  A
O1104      C1112   1.267       .  A
O1104     Co1124   1.908       .  S
O1105      C1113   1.265       .  A
O1105     Co1125   2.020       .  S
O1106      C1112   1.294       .  A
O1106     Co1123   2.047       .  S
O1107      C1113   1.254       .  A
O1108      C1111   1.269       .  A
O1108     Co1125   1.909       .  S
O1109      C1110   1.266       .  A
O1109     Co1124   2.017       .  S
O1114      C1127   1.246       .  A
O1115      C1128   1.259       .  A
O1115     Co1123   1.973       .  S
O1116      C1129   1.280       .  A
O1116     Co1124   2.063       .  S
O1117      C1130   1.257       .  A
O1117     Co1125   1.987       .  S
O1118      C1130   1.257       .  A
O1119      C1129   1.247       .  A
O1119     Co1122   1.984       .  S
O1120      C1127   1.277       .  A
O1120     Co1125   2.070       .  S
O1121      C1128   1.257       .  A
O1121     Co1124   2.000       .  S
Co1122     O1126   1.975       .  S
Co1123     O1126   2.151       .  S
Co1124     O1126   2.043       .  S
O1131      C1139   1.246       .  A
O1131     Co1151   1.935       .  S
O1132      C1140   1.257       .  A
O1132     Co1152   1.991       .  S
O1133      C1141   1.254       .  A
O1133     Co1153   2.015       .  S
O1134      C1142   1.284       .  A
O1134     Co1154   2.074       .  S
O1135      C1141   1.255       .  A
O1135     Co1152   1.982       .  S
O1136      C1142   1.244       .  A
O1136     Co1151   1.938       .  S
O1137      C1140   1.253       .  A
O1137     Co1154   2.027       .  S
O1138      C1139   1.287       .  A
O1138     Co1153   2.088       .  S
O1143      C1156   1.265       .  A
O1143     Co1151   2.028       .  S
O1144      C1157   1.293       .  A
O1144     Co1152   2.083       .  S
O1145      C1158   1.252       .  A
O1145     Co1153   1.988       .  S
O1146      C1159   1.262       .  A
O1146     Co1154   1.877       .  S
O1147      C1159   1.291       .  A
O1147     Co1152   2.082       .  S
O1148      C1158   1.261       .  A
O1148     Co1151   2.012       .  S
O1149      C1156   1.252       .  A
O1149     Co1154   1.991       .  S
O1150      C1157   1.267       .  A
O1150     Co1153   1.894       .  S
Co1151     O1155   2.050       .  S
Co1152     O1155   2.104       .  S
Co1153     O1155   2.042       .  S
Co1154     O1155   2.028       .  S
O1160      C1168   1.255       .  A
O1161      C1169   1.293       .  A
O1161     Co1181   2.038       .  S
O1162      C1170   1.267       .  A
O1162     Co1182   1.905       .  S
O1163      C1171   1.264       .  A
O1163     Co1183   2.026       .  S
O1164      C1170   1.295       .  A
O1165      C1171   1.259       .  A
O1165     Co1180   2.024       .  S
O1166      C1169   1.269       .  A
O1166     Co1183   1.894       .  S
O1167      C1168   1.264       .  A
O1167     Co1182   2.011       .  S
O1172      C1185   1.247       .  A
O1172     Co1180   1.979       .  S
O1173      C1186   1.254       .  A
O1174      C1187   1.280       .  A
O1174     Co1182   2.079       .  S
O1175      C1188   1.256       .  A
O1175     Co1183   1.985       .  S
O1176      C1188   1.257       .  A
O1176     Co1181   1.971       .  S
O1177      C1187   1.248       .  A
O1178      C1185   1.272       .  A
O1178     Co1183   2.054       .  S
O1179      C1186   1.257       .  A
O1179     Co1182   1.987       .  S
Co1180     O1184   1.968       .  S
Co1181     O1184   2.153       .  S
Co1183     O1184   2.044       .  S
