geometry optimzed in LAMMPS
_audit_creation_date              2020-11-30 
_audit_creation_method            'lammps2cif' 
_symmetry_space_group_name_H-M    'P1' 
_symmetry_Int_Tables_number       1 
_symmetry_cell_setting            triclinic 
loop_ 
_symmetry_equiv_pos_as_xyz 
  x,y,z 
_cell_length_a                    51.98291766 
_cell_length_b                    51.855369319193855 
_cell_length_c                    29.958195776991555 
_cell_angle_alpha                 89.96387932301842 
_cell_angle_beta                  90.05021312339169 
_cell_angle_gamma                 120.29882036958955 
loop_ 
_atom_site_label 
_atom_site_type_symbol 
_atom_site_fract_x 
_atom_site_fract_y 
_atom_site_fract_z 
_atom_site_charge 
C1          C  0.23177163  0.21214804  0.28520903     0.79900
N2          N  0.25359815  0.23626954  0.30657382    -0.78400
C3          C  0.27846994  0.25690418  0.28497293     0.82400
N4          N  0.28123181  0.25332938  0.24050898    -0.78300
C5          C  0.25930729  0.22920067  0.21821033     0.82500
N6          N  0.23474829  0.20860274  0.24098638    -0.80000
C7          C  0.23619201  0.20625575  0.81690077     0.79900
N8          N  0.25674233  0.23150741  0.79593156    -0.78400
C9          C  0.28054055  0.25323110  0.81844968     0.82400
N10         N  0.28319411  0.24966879  0.86292186    -0.78300
C11         C  0.26240787  0.22461245  0.88462370     0.82500
N12         N  0.23904987  0.20289256  0.86121256    -0.80000
C13         C  0.25180412  0.48794371  0.28964444     0.79900
N14         N  0.25549139  0.49500970  0.24556118    -0.78400
C15         C  0.23419965  0.49733894  0.22229539     0.82400
N16         N  0.20924274  0.49303081  0.24393904    -0.78300
C17         C  0.20529534  0.48594167  0.28815412     0.82500
N18         N  0.22659881  0.48320138  0.31048050    -0.80000
C19         C  0.25940251  0.50006986  0.82106113     0.79900
N20         N  0.26164045  0.50509038  0.86568322    -0.78400
C21         C  0.23991724  0.50695413  0.88831848     0.82400
N22         N  0.21588865  0.50415956  0.86550505    -0.78300
C23         C  0.21339024  0.49924341  0.82059427     0.82500
N24         N  0.23514441  0.49685961  0.79888359    -0.80000
C25         C  0.47516250  0.23078904  0.29057669     0.79900
N26         N  0.48077927  0.21105992  0.31199147    -0.78400
C27         C  0.48030188  0.18803826  0.28947489     0.82400
N28         N  0.47477707  0.18532078  0.24482559    -0.78300
C29         C  0.46980096  0.20534622  0.22272255     0.82500
N30         N  0.46979297  0.22792808  0.24596370    -0.80000
C31         C  0.46682725  0.22710761  0.82004249     0.79900
N32         N  0.46282053  0.22508498  0.86501902    -0.78400
C33         C  0.46109024  0.20151684  0.88803479     0.82400
N34         N  0.46302820  0.17974061  0.86533611    -0.78300
C35         C  0.46709553  0.18162355  0.82032305     0.82500
N36         N  0.46925565  0.20550171  0.79824367    -0.80000
O37         O  0.42337330  0.00656402  0.50579884    -0.88500
C38         C  0.07394879  0.06131779  0.61746947     1.11600
O39         O  0.45693326  0.47886793  0.55545983    -1.36300
O40         O  0.05550653  0.06918586  0.50504645    -0.90000
O41         O  0.39600882  0.45580274  0.50820680    -0.90600
O42         O  0.45445261  0.44599784  0.46118714    -0.79400
O43         O  0.48957232  0.03661721  0.51463075    -1.01500
C44         C  0.03919941  0.47329284  0.47384636     1.21600
O45         O  0.48573744  0.44585043  0.55518589    -1.36400
Mn46       Mn  0.48799541  0.47798482  0.60391088     1.82100
O47         O  0.01723445  0.47515356  0.46077676    -0.78500
O48         O  0.07727343  0.04140950  0.50074834    -0.87900
C49         C  0.04020287  0.47568012  0.63771543     1.12700
C50         C  0.07467107  0.06353136  0.48861162     1.07400
O51         O  0.45674536  0.44753636  0.65091603    -0.79500
O52         O  0.01716851  0.00831892  0.55119937    -1.33200
O53         O  0.42863106  0.42164465  0.59819958    -0.98700
C54         C  0.48177255  0.38839422  0.49031377     1.06100
Mn55       Mn  0.05807406  0.00840128  0.55069981     1.48600
O56         O  0.45731061  0.38476650  0.50571785    -0.87900
Mn57       Mn  0.41396283  0.44055463  0.55716159     1.49600
O58         O  0.42458065  0.50709342  0.60565982    -0.91700
C59         C  0.48950970  0.03277756  0.47452377     1.19300
C60         C  0.40414446  0.48272453  0.62234178     1.11400
Mn61       Mn  0.48664140  0.47709372  0.50594762     1.81000
O62         O  0.04288396  0.47424284  0.59760374    -0.96900
Mn63       Mn  0.45561700  0.01905238  0.55594435     1.49300
C64         C  0.40145075  0.48068871  0.49175051     1.07900
Mn65       Mn  0.02290760  0.44028621  0.55668112     1.49900
C66         C  0.48310531  0.38921151  0.62027090     1.10800
O67         O  0.42694070  0.42041181  0.51477883    -1.02700
O68         O  0.07754052  0.04069396  0.60113664    -0.92400
C69         C  0.43083014  0.42372081  0.47456105     1.22100
O70         O  0.04306106  0.47322214  0.51402096    -1.03100
O71         O  0.05403873  0.06684852  0.60383194    -0.90500
O72         O  0.00619667  0.40740448  0.60677008    -0.90100
O73         O  0.39843972  0.45722778  0.60802721    -0.90100
Mn74       Mn  0.02196191  0.05130614  0.55333689     1.47900
O75         O  0.01777346  0.47668089  0.65080910    -0.78600
C76         C  0.43279905  0.42528737  0.63824333     1.15100
O77         O  0.48749487  0.00889259  0.46128538    -0.77300
O78         O  0.48633155  0.00718548  0.65047264    -0.76900
Mn79       Mn  0.44478321  0.40458369  0.55625502     1.51100
O80         O  0.00668625  0.40755190  0.50745267    -0.89300
O81         O  0.48888187  0.03552647  0.59797318    -0.96800
O82         O  0.45847157  0.38587208  0.60644637    -0.91800
C83         C  0.48782018  0.03101442  0.63795065     1.12900
C84         C  0.94712287  0.05434775  0.77058765    -0.18100
C85         C  0.94349987  0.07484754  0.79653236    -0.20300
C86         C  0.46123398  0.10791946  0.78562555     0.20400
C87         C  0.47746624  0.11645559  0.74528090    -0.03200
C88         C  0.48092161  0.09530003  0.72013251    -0.06300
C89         C  0.46797626  0.06543997  0.73505160     0.20600
C90         C  0.49713831  0.10402244  0.67988231     0.18800
C91         C  0.50978433  0.13364216  0.66496383    -0.17800
C92         C  0.50629811  0.15448036  0.68979474    -0.20000
C93         C  0.49020385  0.14615040  0.72988077     0.20300
C94         C  0.48657803  0.16698115  0.75471555    -0.33000
C95         C  0.47069107  0.15890430  0.79520183     0.01000
C96         C  0.45819666  0.12928151  0.81063128    -0.24300
C97         C  0.96856759  0.04337333  0.70534132    -0.28900
C98         C  0.48712851  0.05305120  0.66882954     0.06700
C99         C  0.50011876  0.08295366  0.65463243    -0.27600
H100        H  0.93566925  0.03103362  0.78042769     0.11400
H101        H  0.92941413  0.06694165  0.82580076     0.12500
H102        H  0.52220617  0.14060449  0.63412307     0.11600
H103        H  0.51623368  0.17724382  0.67747211     0.10800
H104        H  0.49648312  0.18976835  0.74256960     0.16200
H105        H  0.94009950  0.11877666  0.83937047     0.12100
H106        H  0.95701798  0.01984015  0.71396739     0.15000
H107        H  0.51220687  0.08972772  0.62341160     0.14800
C108        C  0.51746001  0.32146237  0.66983926    -0.18100
C109        C  0.51468359  0.29832336  0.69703441    -0.20300
C110        C  0.49418512  0.28771799  0.73235479     0.20400
C111        C  0.47637321  0.30060007  0.74060189    -0.03200
C112        C  0.47874321  0.32360318  0.71243546    -0.06300
C113        C  0.49953040  0.33411764  0.67707085     0.20600
C114        C  0.45999484  0.33564230  0.71904450     0.18800
C115        C  0.43969011  0.32513702  0.75474685    -0.17800
C116        C  0.43784863  0.30281587  0.78338972    -0.20000
C117        C  0.45590343  0.29016023  0.77641449     0.20300
C118        C  0.45349873  0.26686459  0.80381015    -0.33000
C119        C  0.47060387  0.25334840  0.79461574     0.01000
C120        C  0.49095879  0.26409936  0.75901878    -0.24300
C121        C  0.50160699  0.35661742  0.64886096    -0.28900
C122        C  0.48244081  0.36808071  0.65411682     0.06700
C123        C  0.46158892  0.35750795  0.68930682    -0.27600
H124        H  0.53341985  0.32920314  0.64265237     0.11400
H125        H  0.52849885  0.28864445  0.69036171     0.12500
H126        H  0.42511873  0.33405056  0.76037443     0.11600
H127        H  0.42193116  0.29510334  0.81056907     0.10800
H128        H  0.43762735  0.25852614  0.83106478     0.16200
H129        H  0.50438113  0.25398955  0.75202776     0.12100
H130        H  0.51734748  0.36432742  0.62136127     0.15000
H131        H  0.44668384  0.36621972  0.69338024     0.14800
C132        C  0.51484270  0.13661319  0.45017957    -0.18100
C133        C  0.51360705  0.15839504  0.42436335    -0.20300
C134        C  0.50116530  0.15158282  0.38144075     0.20400
C135        C  0.49054438  0.12269807  0.36377596    -0.03200
C136        C  0.49173558  0.10062812  0.38987331    -0.06300
C137        C  0.50361915  0.10761858  0.43339007     0.20600
C138        C  0.98490862  0.07725283  0.36853166     0.18800
C139        C  0.98212629  0.07477842  0.32185977    -0.17800
C140        C  0.97911227  0.09594835  0.29669773    -0.20000
C141        C  0.97877045  0.12000201  0.31771992     0.20300
C142        C  0.97513380  0.14105537  0.29295210    -0.33000
C143        C  0.48530460  0.16595894  0.31377239     0.01000
C144        C  0.49846147  0.17290795  0.35638427    -0.24300
C145        C  0.50349478  0.08537700  0.45992610    -0.28900
C146        C  0.49163587  0.05606518  0.44376225     0.06700
C147        C  0.98692183  0.05556927  0.39444540    -0.27600
H148        H  0.52413313  0.14228337  0.48345424     0.10500
H149        H  0.52200215  0.18054371  0.43833722     0.12500
H150        H  0.98202297  0.05629447  0.30480018     0.11600
H151        H  0.97681008  0.09336649  0.26080666     0.10800
H152        H  0.97262134  0.13871373  0.25703014     0.16200
H153        H  0.50622976  0.19490824  0.37050835     0.12100
H154        H  0.51226149  0.09080366  0.49358286     0.15000
H155        H  0.98612709  0.03645075  0.37838174     0.14800
C156        C  0.42622244  0.28390973  0.35272636    -0.18100
C157        C  0.42710677  0.30602824  0.38074352    -0.20300
C158        C  0.45361924  0.32647093  0.40254667     0.20400
C159        C  0.47967245  0.32499844  0.39505272    -0.03200
C160        C  0.47868720  0.30240918  0.36737283    -0.06300
C161        C  0.45179804  0.28164838  0.34625098     0.20600
C162        C  0.50450638  0.30022690  0.36167994     0.18800
C163        C  0.02852126  0.31962530  0.38321980    -0.17800
C164        C  0.03044089  0.34214308  0.41102264    -0.20000
C165        C  0.50659623  0.34564375  0.41605968     0.20300
C166        C  0.50721325  0.36709272  0.44520467    -0.33000
C167        C  0.48107842  0.36785515  0.45489764     0.01000
C168        C  0.45443692  0.34780300  0.43258603    -0.24300
C169        C  0.45091077  0.25873622  0.31978209    -0.28900
C170        C  0.47635239  0.25592680  0.31549662     0.06700
C171        C  0.50300279  0.27675589  0.33636633    -0.27600
H172        H  0.40542612  0.26827449  0.33672823     0.11400
H173        H  0.40690150  0.30692842  0.38575590     0.12500
H174        H  0.04743819  0.31619328  0.38102884     0.11600
H175        H  0.05069981  0.35566314  0.42973269     0.10800
H176        H  0.52791963  0.38242040  0.46178643     0.16200
H177        H  0.43422116  0.34839268  0.43923124     0.12100
H178        H  0.43030988  0.24256233  0.30375390     0.15000
H179        H  0.01752014  0.27251989  0.33322296     0.14800
C180        C  0.94440525  0.14853603  0.03292883    -0.18100
C181        C  0.94534455  0.14949864  0.07960422    -0.20300
C182        C  0.95076153  0.17540006  0.10239394     0.20400
C183        C  0.46244497  0.20201989  0.07926973    -0.03200
C184        C  0.46106538  0.20145060  0.03210283    -0.06300
C185        C  0.94887151  0.17347290  0.00820072     0.20600
C186        C  0.46638944  0.22720868  0.00839150     0.18800
C187        C  0.47298977  0.25322374  0.03193319    -0.17800
C188        C  0.47431101  0.25378373  0.07856095    -0.20000
C189        C  0.46907035  0.22832098  0.10251605     0.20300
C190        C  0.47068523  0.22889315  0.14926580    -0.33000
C191        C  0.46619486  0.20365434  0.17339533     0.01000
C192        C  0.95247545  0.17679085  0.14915484    -0.24300
C193        C  0.94873100  0.17294787  0.96132492    -0.28900
C194        C  0.45962652  0.20088298  0.93773566     0.06700
C195        C  0.46545485  0.22668805  0.96157015    -0.27600
H196        H  0.94040425  0.12834571  0.01613237     0.11400
H197        H  0.94204234  0.13000739  0.09789971     0.12500
H198        H  0.47725465  0.27324966  0.01421984     0.11600
H199        H  0.47954328  0.27418415  0.09589274     0.10800
H200        H  0.47611956  0.24930996  0.16677916     0.16200
H201        H  0.94955827  0.15755980  0.16781412     0.12100
H202        H  0.94513645  0.15300258  0.94414633     0.15000
H203        H  0.47000687  0.24674846  0.94367870     0.14800
C204        C  0.30687443  0.43744373  0.69829094    -0.18100
C205        C  0.28621297  0.44019644  0.72467455    -0.20300
C206        C  0.29478649  0.46661132  0.74852566     0.20400
C207        C  0.32472623  0.49006444  0.74704617    -0.03200
C208        C  0.34546013  0.48751286  0.71949488    -0.06300
C209        C  0.33630617  0.46115778  0.69464356     0.20600
C210        C  0.37497407  0.51163592  0.71558966     0.18800
C211        C  0.37562260  0.03778047  0.72742901    -0.17800
C212        C  0.35498195  0.03981782  0.75512576    -0.20000
C213        C  0.33369649  0.51637674  0.77191298     0.20300
C214        C  0.31248399  0.51918247  0.79760008    -0.33000
C215        C  0.28230293  0.49645518  0.79712148     0.01000
C216        C  0.27371018  0.47015675  0.77292238    -0.24300
C217        C  0.35631291  0.45936705  0.66521355    -0.28900
C218        C  0.38514612  0.48390578  0.65866007     0.06700
C219        C  0.39455648  0.50982297  0.68481773    -0.27600
H220        H  0.29952765  0.41695581  0.67961680     0.11400
H221        H  0.26344716  0.42188043  0.72589085     0.12500
H222        H  0.39731960  0.05738776  0.72248257     0.11600
H223        H  0.36129831  0.06100476  0.77097755     0.10800
H224        H  0.31084752  0.03817404  0.80405841     0.16200
H225        H  0.25058889  0.45250410  0.77310834     0.12100
H226        H  0.34877642  0.43925286  0.64548447     0.15000
H227        H  0.41686588  0.52876161  0.68057698     0.14800
C228        C  0.15919066  0.48071395  0.67796704    -0.18100
C229        C  0.13494342  0.47706813  0.65291093    -0.20300
C230        C  0.11187236  0.47930919  0.67331910     0.20400
C231        C  0.11323861  0.48549505  0.71929367    -0.03200
C232        C  0.13786520  0.48917458  0.74471896    -0.06300
C233        C  0.16083159  0.48665973  0.72382832     0.20600
C234        C  0.13949929  0.49526341  0.79083903     0.18800
C235        C  0.11643872  0.49783892  0.81094491    -0.17800
C236        C  0.09203052  0.49426996  0.78566722    -0.20000
C237        C  0.09007564  0.48796667  0.73973568     0.20300
C238        C  0.06561983  0.48422632  0.71376098    -0.33000
C239        C  0.06426225  0.47802404  0.66766647     0.01000
C240        C  0.08757670  0.47553627  0.64815034    -0.24300
C241        C  0.18506896  0.49003886  0.74896904    -0.28900
C242        C  0.18710918  0.49593768  0.79508721     0.06700
C243        C  0.16409827  0.49858439  0.81583194    -0.27600
H244        H  0.17670282  0.47879373  0.66138559     0.11400
H245        H  0.13420397  0.47244235  0.61755561     0.12500
H246        H  0.11724935  0.50258175  0.84627250     0.11600
H247        H  0.07462626  0.49638142  0.80212498     0.10800
H248        H  0.04800475  0.48649435  0.72915725     0.16200
H249        H  0.08705911  0.47088425  0.61279474     0.12100
H250        H  0.20243805  0.48794999  0.73226199     0.15000
H251        H  0.16528333  0.50319505  0.85126906     0.14800
C252        C  0.35713124  0.52628701  0.33330725    -0.18100
C253        C  0.37808679  0.52572140  0.36224397    -0.20300
C254        C  0.36914116  0.50326701  0.39477451     0.20400
C255        C  0.33880870  0.48080280  0.39741373    -0.03200
C256        C  0.31757861  0.48172536  0.36885038    -0.06300
C257        C  0.32674825  0.50463858  0.33671542     0.20600
C258        C  0.28707674  0.46008273  0.37320854     0.18800
C259        C  0.27823960  0.43706239  0.40460628    -0.17800
C260        C  0.29927665  0.43577405  0.43219792    -0.20000
C261        C  0.32952786  0.45776794  0.42929012     0.20300
C262        C  0.35046024  0.45744218  0.45853043    -0.33000
C263        C  0.38053570  0.48036636  0.45752857     0.01000
C264        C  0.38977715  0.50314465  0.42525663    -0.24300
C265        C  0.30528756  0.50587105  0.30941382    -0.28900
C266        C  0.27473991  0.48511095  0.31507621     0.06700
C267        C  0.26590930  0.46218993  0.34677978    -0.27600
H268        H  0.36462609  0.54400372  0.30882475     0.11400
H269        H  0.40129646  0.54304315  0.35943137     0.12500
H270        H  0.25492015  0.42012611  0.40815759     0.11600
H271        H  0.29182617  0.41792496  0.45640716     0.10800
H272        H  0.34307374  0.43991073  0.48333927     0.16200
H273        H  0.41294097  0.52076029  0.42398907     0.12100
H274        H  0.31219080  0.52365412  0.28512185     0.15000
H275        H  0.24240698  0.44596369  0.35093752     0.14800
C276        C  0.09344181  0.49689188  0.32908956    -0.18100
C277        C  0.11688115  0.49886433  0.30323263    -0.20300
C278        C  0.13521083  0.48834231  0.31983817     0.20400
C279        C  0.12949962  0.47532889  0.36273342    -0.03200
C280        C  0.10588925  0.47335926  0.38880801    -0.06300
C281        C  0.08784230  0.48436495  0.37207951     0.20600
C282        C  0.10076794  0.46090378  0.43199001     0.18800
C283        C  0.11867726  0.44991414  0.44845827    -0.17800
C284        C  0.14193421  0.45181657  0.42264951    -0.20000
C285        C  0.14773182  0.46474522  0.38003797     0.20300
C286        C  0.17179748  0.46776281  0.35489467    -0.33000
C287        C  0.17826464  0.48129366  0.31248652     0.01000
C288        C  0.15946665  0.49109874  0.29480936    -0.24300
C289        C  0.06506941  0.48325918  0.39906886    -0.28900
C290        C  0.06061234  0.47176936  0.44277203     0.06700
C291        C  0.07829499  0.46022445  0.45855558    -0.27600
H292        H  0.07990833  0.50552726  0.31563278     0.11400
H293        H  0.12087871  0.50893549  0.27042750     0.12500
H294        H  0.11492671  0.44021359  0.48147037     0.11600
H295        H  0.15570077  0.44348054  0.43636851     0.10800
H296        H  0.18580081  0.45977801  0.36883277     0.16200
H297        H  0.16413830  0.50154665  0.26220678     0.12100
H298        H  0.05164451  0.49234337  0.38677044     0.15000
H299        H  0.07486465  0.45109128  0.49198500     0.14800
C300        C  0.20359022  0.52358056  0.03286768    -0.18100
C301        C  0.20274923  0.52214908  0.07960171    -0.20300
C302        C  0.22107635  0.51416543  0.10314707     0.20400
C303        C  0.24108317  0.50844183  0.07932762    -0.03200
C304        C  0.24192533  0.50987959  0.03216622    -0.06300
C305        C  0.22276283  0.51704126  0.00876214     0.20600
C306        C  0.26145321  0.50345125  0.00845314     0.18800
C307        C  0.28032265  0.49620426  0.03195081    -0.17800
C308        C  0.27949410  0.49478858  0.07856635    -0.20000
C309        C  0.25978402  0.50059849  0.10253075     0.20300
C310        C  0.25801047  0.49802255  0.14918519    -0.33000
C311        C  0.23746408  0.50271395  0.17326484     0.01000
C312        C  0.21931731  0.51117219  0.14991558    -0.24300
C313        C  0.22263207  0.51683060  0.96176459    -0.28900
C314        C  0.24155116  0.50969687  0.93783908     0.06700
C315        C  0.26129638  0.50363858  0.96166329    -0.27600
H316        H  0.18887265  0.52934564  0.01552444     0.11400
H317        H  0.18740601  0.52684791  0.09732389     0.12500
H318        H  0.29547337  0.49123281  0.01421629     0.11600
H319        H  0.29402573  0.48876180  0.09588303     0.10800
H320        H  0.27208125  0.49142178  0.16660473     0.16200
H321        H  0.20355257  0.51507239  0.16805621     0.12100
H322        H  0.20748096  0.52176837  0.94386489     0.15000
H323        H  0.27598336  0.49805583  0.94382676     0.14800
C324        C  0.40087908  0.37099161  0.78337730    -0.18100
C325        C  0.37965733  0.34645664  0.80817746    -0.20300
C326        C  0.35174522  0.32624464  0.78964516     0.20400
C327        C  0.34508317  0.33113311  0.74588171    -0.03200
C328        C  0.36644187  0.35585973  0.72093066    -0.06300
C329        C  0.39464989  0.37578794  0.73951203     0.20600
C330        C  0.35969465  0.36026613  0.67702365     0.18800
C331        C  0.33171162  0.34047792  0.65860011    -0.17800
C332        C  0.31065623  0.31605331  0.68321052    -0.20000
C333        C  0.31721408  0.31105565  0.72666661     0.20300
C334        C  0.29643224  0.28608603  0.75089276    -0.33000
C335        C  0.30283318  0.28061650  0.79436564     0.01000
C336        C  0.33052176  0.30107072  0.81375027    -0.24300
C337        C  0.41625514  0.39957087  0.71343309    -0.28900
C338        C  0.40986341  0.40325221  0.66897967     0.06700
C339        C  0.38125581  0.38388937  0.65166459    -0.27600
H340        H  0.42235397  0.38595822  0.79829997     0.11400
H341        H  0.38521727  0.34311688  0.84172200     0.12500
H342        H  0.32625165  0.34366108  0.62489448     0.11600
H343        H  0.28931279  0.30087865  0.66805929     0.10800
H344        H  0.27518323  0.27078518  0.73558075     0.16200
H345        H  0.33576941  0.29716592  0.84719106     0.12100
H346        H  0.43823601  0.41434970  0.72700647     0.15000
H347        H  0.37591881  0.38672300  0.61766618     0.14800
C348        C  0.17303132  0.10287295  0.76159958    -0.18100
C349        C  0.15040229  0.08253778  0.73325418    -0.20300
C350        C  0.13343603  0.09142368  0.70794417     0.20400
C351        C  0.13903242  0.12095078  0.71180223    -0.03200
C352        C  0.16227729  0.14162378  0.73958944    -0.06300
C353        C  0.17940338  0.13256324  0.76461334     0.20600
C354        C  0.16879460  0.17153830  0.74151667     0.18800
C355        C  0.15135070  0.18022834  0.71719454    -0.17800
C356        C  0.12796315  0.15962232  0.69040855    -0.20000
C357        C  0.12191826  0.13009148  0.68702276     0.20300
C358        C  0.09965032  0.10986544  0.65818836    -0.33000
C359        C  0.09481367  0.08082414  0.65250455     0.01000
C360        C  0.11154295  0.07160046  0.67796828    -0.24300
C361        C  0.20295922  0.15355143  0.79135757    -0.28900
C362        C  0.21014439  0.18357182  0.79190132     0.06700
C363        C  0.19295900  0.19237135  0.76710221    -0.27600
H364        H  0.18592089  0.09550196  0.78053559     0.11400
H365        H  0.14638438  0.05996471  0.73078538     0.12500
H366        H  0.15595868  0.20305852  0.71858675     0.11600
H367        H  0.11498359  0.16694286  0.67162569     0.10800
H368        H  0.08701857  0.11723886  0.63857558     0.16200
H369        H  0.10787023  0.04923241  0.67393516     0.12100
H370        H  0.21637879  0.14686590  0.81039383     0.15000
H371        H  0.19844299  0.21551129  0.76786527     0.14800
C372        C  0.31202174  0.31039436  0.42784233    -0.18100
C373        C  0.33299065  0.33380433  0.45404157    -0.20300
C374        C  0.36001816  0.35566663  0.43544124     0.20400
C375        C  0.36611757  0.35401279  0.39000355    -0.03200
C376        C  0.34483451  0.33028028  0.36341551    -0.06300
C377        C  0.31773732  0.30850028  0.38259190     0.20600
C378        C  0.35061749  0.32831103  0.31786912     0.18800
C379        C  0.37788168  0.35022714  0.29952979    -0.17800
C380        C  0.39907071  0.37378620  0.32597388    -0.20000
C381        C  0.39341807  0.37594884  0.37129972     0.20300
C382        C  0.41453880  0.39937604  0.39842520    -0.33000
C383        C  0.40853126  0.40083914  0.44396670     0.01000
C384        C  0.38108245  0.37895999  0.46182586    -0.24300
C385        C  0.29664815  0.28507874  0.35642206    -0.28900
C386        C  0.30184914  0.28265838  0.31089136     0.06700
C387        C  0.32903842  0.30447982  0.29173945    -0.27600
H388        H  0.29129428  0.29375249  0.44298856     0.11400
H389        H  0.32807301  0.33477781  0.48895848     0.12500
H390        H  0.38284404  0.34915290  0.26469324     0.11600
H391        H  0.41989173  0.39031013  0.31095143     0.10800
H392        H  0.43570971  0.41601354  0.38442205     0.16200
H393        H  0.37611998  0.37983224  0.49677605     0.12100
H394        H  0.27598003  0.26863593  0.37196337     0.15000
H395        H  0.33343320  0.30290310  0.25679505     0.14800
C396        C  0.16436133  0.18818622  0.41371833    -0.18100
C397        C  0.14235308  0.16732780  0.44210427    -0.20300
C398        C  0.12930159  0.13663330  0.43365417     0.20400
C399        C  0.13819423  0.12681295  0.39590770    -0.03200
C400        C  0.16001893  0.14792091  0.36671101    -0.06300
C401        C  0.17342558  0.17869990  0.37610732     0.20600
C402        C  0.16885637  0.13821929  0.32870744     0.18800
C403        C  0.15573181  0.10748652  0.32033960    -0.17800
C404        C  0.13453618  0.08657153  0.34978635    -0.20000
C405        C  0.12570230  0.09594400  0.38779804     0.20300
C406        C  0.10492117  0.07509284  0.41813095    -0.33000
C407        C  0.09584863  0.08484637  0.45557242     0.01000
C408        C  0.10786539  0.11561287  0.46271244    -0.24300
C409        C  0.19617664  0.19944987  0.34838379    -0.28900
C410        C  0.20553235  0.18999706  0.31090101     0.06700
C411        C  0.19125190  0.15937905  0.30058132    -0.27600
H412        H  0.17443369  0.21174693  0.42133976     0.11400
H413        H  0.13581723  0.17520574  0.47103799     0.12500
H414        H  0.16224473  0.09958153  0.29141541     0.11600
H415        H  0.12520310  0.06306391  0.34298151     0.10800
H416        H  0.09565994  0.05139788  0.41252622     0.16200
H417        H  0.10118162  0.12320775  0.49185297     0.12100
H418        H  0.20693663  0.22304078  0.35632978     0.15000
H419        H  0.19852282  0.15195550  0.27193142     0.14800
C420        C  0.21311347  0.17944587  0.02819266    -0.18100
C421        C  0.21261695  0.18024535  0.07487261    -0.20300
C422        C  0.23757467  0.20167395  0.09869301     0.20400
C423        C  0.26354775  0.22198563  0.07530333    -0.03200
C424        C  0.26405054  0.22118038  0.02815377    -0.06300
C425        C  0.23857939  0.20006186  0.00451303     0.20600
C426        C  0.28974580  0.24205260  0.00469173     0.18800
C427        C  0.31500662  0.26284683  0.02858355    -0.17800
C428        C  0.31451742  0.26362229  0.07525928    -0.20000
C429        C  0.28875491  0.24362913  0.09891319     0.20300
C430        C  0.28753186  0.24540567  0.14560214    -0.33000
C431        C  0.26140561  0.22583410  0.16918400     0.01000
C432        C  0.23672611  0.20361586  0.14536368    -0.24300
C433        C  0.23868673  0.20049641  0.95764671    -0.28900
C434        C  0.26379464  0.22207420  0.93391188     0.06700
C435        C  0.28945681  0.24236267  0.95781574    -0.27600
H436        H  0.19338862  0.16301580  0.01058417     0.11400
H437        H  0.19252089  0.16439954  0.09231653     0.12500
H438        H  0.33499947  0.27890414  0.01111896     0.11600
H439        H  0.33415165  0.28025012  0.09284815     0.10800
H440        H  0.30679348  0.26243192  0.16344005     0.16200
H441        H  0.21646617  0.18827221  0.16293896     0.12100
H442        H  0.21875988  0.18469184  0.93977359     0.15000
H443        H  0.30903063  0.25890275  0.94000469     0.14800
C444        C  0.24267930  0.70137459  0.28804183     0.79900
N445        N  0.26277713  0.72681559  0.30912225    -0.78400
C446        C  0.28705344  0.74846856  0.28750398     0.82400
N447        N  0.29080222  0.74468356  0.24352102    -0.78300
C448        C  0.27066150  0.71945085  0.22135455     0.82500
N449        N  0.24665745  0.69772288  0.24404652    -0.80000
C450        C  0.24014107  0.70459565  0.82208900     0.79900
N451        N  0.25965948  0.73052796  0.80168913    -0.78400
C452        C  0.28434993  0.75171691  0.82306309     0.82400
N453        N  0.28914391  0.74695362  0.86614940    -0.78300
C454        C  0.26958594  0.72118009  0.88766482     0.82500
N455        N  0.24517355  0.69989403  0.86515580    -0.80000
C456        C  0.25644162  0.99786537  0.28837722     0.79900
N457        N  0.25777305  0.00104378  0.24321039    -0.78400
C458        C  0.23571246  0.00244790  0.22058064     0.82400
N459        N  0.21226948  0.00054230  0.24381954    -0.78300
C460        C  0.21064399  0.99723092  0.28896124     0.82500
N461        N  0.23286972  0.99588915  0.31092051    -0.80000
C462        C  0.25312581  0.99560076  0.81766779     0.79900
N463        N  0.25586630  0.00130192  0.86227342    -0.78400
C464        C  0.23418849  0.00325005  0.88510195     0.82400
N465        N  0.20993527  0.99998651  0.86245673    -0.78300
C466        C  0.20701115  0.99442632  0.81780239     0.82500
N467        N  0.22858047  0.99191466  0.79586854    -0.80000
C468        C  0.47434858  0.73024563  0.28744394     0.79900
N469        N  0.47796381  0.70938604  0.30924169    -0.78400
C470        C  0.47600381  0.68554809  0.28722723     0.82400
N471        N  0.47096976  0.68305865  0.24250778    -0.78300
C472        C  0.46780925  0.70411138  0.22000329     0.82500
N473        N  0.46923952  0.72754219  0.24280558    -0.80000
C474        C  0.46622515  0.72672330  0.81885403     0.79900
N475        N  0.46287083  0.72480490  0.86380928    -0.78400
C476        C  0.46074094  0.70097090  0.88632102     0.82400
N477        N  0.46154682  0.67878631  0.86320683    -0.78300
C478        C  0.46462754  0.68040301  0.81807242     0.82500
N479        N  0.46731162  0.70465302  0.79632586    -0.80000
O480        O  0.42324128  0.50561856  0.50455164    -0.88500
C481        C  0.07711792  0.56217537  0.61867044     1.11600
O482        O  0.45535902  0.97793853  0.55491789    -1.36300
O483        O  0.05769378  0.56687885  0.50360740    -0.90000
O484        O  0.39595890  0.95674567  0.50330999    -0.90600
O485        O  0.45422077  0.94643854  0.45959296    -0.79400
O486        O  0.48955751  0.53598944  0.51216234    -1.01500
C487        C  0.03823131  0.97597085  0.46851059     1.21600
O488        O  0.48349260  0.94417966  0.55415502    -1.36400
Mn489      Mn  0.48539697  0.97581271  0.60364378     1.82100
O490        O  0.01632101  0.97792793  0.45541334    -0.78500
O491        O  0.07947801  0.53909715  0.50432353    -0.87900
C492        C  0.03770217  0.97482023  0.63231561     1.12700
C493        C  0.07695875  0.56059670  0.48904361     1.07400
O494        O  0.45356724  0.94498650  0.64835302    -0.79500
O495        O  0.01903592  0.50742160  0.55475954    -1.33200
O496        O  0.42500641  0.91935012  0.59537037    -0.98700
C497        C  0.47983340  0.88678129  0.48866704     1.06100
Mn498      Mn  0.05981267  0.50724789  0.55507472     1.48600
O499        O  0.45523270  0.88351026  0.50281838    -0.87900
Mn500      Mn  0.41192537  0.93980530  0.55360602     1.49600
O501        O  0.42266953  0.00541932  0.60576039    -0.91700
C502        C  0.48862840  0.53179348  0.47215851     1.19300
C503        C  0.40078113  0.98088697  0.61959688     1.11400
Mn504      Mn  0.48569766  0.97661575  0.50617292     1.81000
O505        O  0.04167310  0.97443516  0.59225862    -0.96900
Mn506      Mn  0.45637823  0.51947175  0.55432349     1.49300
C507        C  0.40208932  0.98253521  0.48963082     1.07900
Mn508      Mn  0.02144698  0.94118496  0.54986729     1.49900
C509        C  0.47929006  0.88611231  0.61747713     1.10800
O510        O  0.42550733  0.91999707  0.51161722    -1.02700
O511        O  0.07958035  0.54038707  0.60444521    -0.92400
C512        C  0.43028560  0.92397009  0.47165341     1.22100
O513        O  0.04138637  0.97501951  0.50865029    -1.03100
O514        O  0.05781717  0.56816826  0.60347973    -0.90500
O515        O  0.00478937  0.90760918  0.59900716    -0.90100
O516        O  0.39481443  0.95562961  0.60375370    -0.90100
Mn517      Mn  0.02465426  0.55081617  0.55380007     1.47900
O518        O  0.01549159  0.97631710  0.64479750    -0.78600
C519        C  0.42959711  0.92294632  0.63547836     1.15100
O520        O  0.48713051  0.50810405  0.45928674    -0.77300
O521        O  0.48952175  0.51020820  0.64927595    -0.76900
Mn522      Mn  0.44213956  0.90302692  0.55326252     1.51100
O523        O  0.00511914  0.90877798  0.49957309    -0.89300
O524        O  0.49018337  0.53657129  0.59508882    -0.96800
O525        O  0.45485914  0.88316531  0.60322565    -0.91800
C526        C  0.48941370  0.53297908  0.63529950     1.12900
C527        C  0.96146582  0.56110737  0.77917234    -0.18100
C528        C  0.95796110  0.58192732  0.80451620    -0.20300
C529        C  0.47066973  0.61202018  0.78872082     0.20400
C530        C  0.47172471  0.61402145  0.74173488    -0.03200
C531        C  0.47595316  0.59360912  0.71616030    -0.06300
C532        C  0.47898103  0.57092411  0.73736014     0.20600
C533        C  0.47748608  0.59618561  0.66933383     0.18800
C534        C  0.47411787  0.61845223  0.64821148    -0.17800
C535        C  0.46989485  0.63855708  0.67349916    -0.20000
C536        C  0.46901923  0.63674818  0.72016352     0.20300
C537        C  0.46604819  0.65766044  0.74552543    -0.33000
C538        C  0.46587988  0.65658625  0.79239843     0.01000
C539        C  0.46767625  0.63330551  0.81386228    -0.24300
C540        C  0.97776109  0.54782782  0.71028992    -0.28900
C541        C  0.48574347  0.55393879  0.66455761     0.06700
C542        C  0.48249821  0.57659243  0.64408466    -0.27600
H543        H  0.95299358  0.53876668  0.79226396     0.11400
H544        H  0.94691009  0.57518820  0.83656733     0.12500
H545        H  0.47503670  0.62046945  0.61223473     0.11600
H546        H  0.46768349  0.65583555  0.65645982     0.10800
H547        H  0.46429922  0.67518017  0.72841887     0.16200
H548        H  0.95223137  0.62540079  0.84426202     0.12100
H549        H  0.96871055  0.52508150  0.72200274     0.15000
H550        H  0.48358835  0.57892037  0.60809626     0.14800
C551        C  0.52415088  0.83134876  0.68502670    -0.18100
C552        C  0.52222668  0.80875759  0.71276007    -0.20300
C553        C  0.49729795  0.79256700  0.74030817     0.20400
C554        C  0.47434051  0.79957466  0.74060763    -0.03200
C555        C  0.47600865  0.82198159  0.71186802    -0.06300
C556        C  0.50103313  0.83785620  0.68392925     0.20600
C557        C  0.45238791  0.82801171  0.71034486     0.18800
C558        C  0.42779587  0.81227434  0.73876240    -0.17800
C559        C  0.42644125  0.79050421  0.76798457    -0.20000
C560        C  0.44940033  0.78370982  0.76879556     0.20300
C561        C  0.44753700  0.76080005  0.79623379    -0.33000
C562        C  0.46971654  0.75293039  0.79438279     0.01000
C563        C  0.49461610  0.76901149  0.76672608    -0.24300
C564        C  0.50223952  0.85948875  0.65462857    -0.28900
C565        C  0.47842286  0.86501227  0.65170349     0.06700
C566        C  0.45356691  0.84925263  0.67987529    -0.27600
H567        H  0.54354194  0.84339432  0.66377703     0.11400
H568        H  0.54008110  0.80376223  0.71236898     0.12500
H569        H  0.40949781  0.81661976  0.73811186     0.11600
H570        H  0.40711085  0.77855092  0.78934860     0.10800
H571        H  0.42824557  0.74818940  0.81745955     0.16200
H572        H  0.51174573  0.76296131  0.76558916     0.12100
H573        H  0.52137859  0.87130892  0.63282577     0.15000
H574        H  0.43515761  0.85341127  0.67793930     0.14800
C575        C  0.50237926  0.63156623  0.45245211    -0.18100
C576        C  0.50052387  0.65299686  0.42684509    -0.20300
C577        C  0.49118111  0.64706885  0.38228889     0.20400
C578        C  0.48367046  0.61928383  0.36307862    -0.03200
C579        C  0.48553385  0.59755062  0.38898419    -0.06300
C580        C  0.49491709  0.60386457  0.43377094     0.20600
C581        C  0.98292622  0.57230011  0.36874697     0.18800
C582        C  0.97885281  0.56883569  0.32227673    -0.17800
C583        C  0.97637901  0.59014099  0.29645854    -0.20000
C584        C  0.97784097  0.61535963  0.31657129     0.20300
C585        C  0.97525693  0.63693100  0.29112864    -0.33000
C586        C  0.47927768  0.66269436  0.31232158     0.01000
C587        C  0.48898708  0.66842666  0.35687490    -0.24300
C588        C  0.49645870  0.58234186  0.45957651    -0.28900
C589        C  0.48860588  0.55423551  0.44172493     0.06700
C590        C  0.98521060  0.55095186  0.39531057    -0.27600
H591        H  0.50953280  0.63658670  0.48685923     0.10500
H592        H  0.50631551  0.67426093  0.44204109     0.12500
H593        H  0.97754481  0.54958764  0.30583089     0.11600
H594        H  0.97325355  0.58685065  0.26075334     0.10800
H595        H  0.97209676  0.63409994  0.25534456     0.16200
H596        H  0.49477502  0.68965078  0.37219144     0.12100
H597        H  0.50358260  0.58748370  0.49403944     0.15000
H598        H  0.98358585  0.53126272  0.37991846     0.14800
C599        C  0.43068330  0.79093791  0.33745408    -0.18100
C600        C  0.43089251  0.81218481  0.36665049    -0.20300
C601        C  0.45491528  0.82832051  0.39594461     0.20400
C602        C  0.47896764  0.82291251  0.39567033    -0.03200
C603        C  0.47842026  0.80096151  0.36703521    -0.06300
C604        C  0.45421140  0.78496132  0.33761428     0.20600
C605        C  0.50185758  0.79464083  0.36851553     0.18800
C606        C  0.02584843  0.81430120  0.38976848    -0.17800
C607        C  0.02743698  0.83740869  0.41579057    -0.20000
C608        C  0.50335466  0.83901970  0.42461876     0.20300
C609        C  0.50368057  0.86047751  0.45337630    -0.33000
C610        C  0.47955775  0.86563037  0.45486159     0.01000
C611        C  0.45515703  0.84939096  0.42597439    -0.24300
C612        C  0.45365898  0.76278387  0.30982908    -0.28900
C613        C  0.47642550  0.75571483  0.31253781     0.06700
C614        C  0.50044910  0.77179796  0.34175402    -0.27600
H615        H  0.41184001  0.77880774  0.31530115     0.11400
H616        H  0.41214900  0.81584965  0.36654269     0.12500
H617        H  0.04456670  0.81051313  0.38981038     0.11600
H618        H  0.04726684  0.85096443  0.43543429     0.10800
H619        H  0.52239886  0.87249393  0.47581478     0.16200
H620        H  0.43643850  0.85310597  0.42693250     0.12100
H621        H  0.43495527  0.75014245  0.28759210     0.15000
H622        H  0.01676174  0.76811899  0.33905502     0.14800
C623        C  0.94073477  0.64941932  0.02873282    -0.18100
C624        C  0.94274491  0.65002396  0.07535347    -0.20300
C625        C  0.95301889  0.67689454  0.09879254     0.20400
C626        C  0.46138124  0.70100987  0.07686298    -0.03200
C627        C  0.46033710  0.70054668  0.02979047    -0.06300
C628        C  0.94897941  0.67568550  0.00462577     0.20600
C629        C  0.46635996  0.72654278  0.00614659     0.18800
C630        C  0.47332202  0.75267753  0.02956614    -0.17800
C631        C  0.47434113  0.75313780  0.07613074    -0.20000
C632        C  0.46841238  0.72745449  0.10002860     0.20300
C633        C  0.46974450  0.72794875  0.14667994    -0.33000
C634        C  0.46450950  0.70248340  0.17079268     0.01000
C635        C  0.95552095  0.67772180  0.14556486    -0.24300
C636        C  0.94799812  0.67540915  0.95774375    -0.28900
C637        C  0.45943281  0.70021864  0.93574922     0.06700
C638        C  0.46569847  0.72613696  0.95948267    -0.27600
H639        H  0.93295909  0.62840757  0.01146853     0.11400
H640        H  0.93640720  0.62944048  0.09310284     0.12500
H641        H  0.47809951  0.77285185  0.01181857     0.11600
H642        H  0.47987291  0.77362730  0.09347287     0.10800
H643        H  0.47551200  0.74847855  0.16414191     0.16200
H644        H  0.94937855  0.65731134  0.16372164     0.12100
H645        H  0.94085128  0.65463674  0.94004902     0.15000
H646        H  0.47072092  0.74636318  0.94165177     0.14800
C647        C  0.30370542  0.93326687  0.69922737    -0.18100
C648        C  0.28275490  0.93548151  0.72589334    -0.20300
C649        C  0.28995918  0.96268870  0.74639539     0.20400
C650        C  0.31875564  0.98767722  0.74065990    -0.03200
C651        C  0.33977161  0.98550555  0.71314315    -0.06300
C652        C  0.33211474  0.95819040  0.69208415     0.20600
C653        C  0.36816876  0.01079175  0.70597344     0.18800
C654        C  0.38389405  0.53740593  0.74143737    -0.17800
C655        C  0.36353588  0.53969001  0.76958383    -0.20000
C656        C  0.32639234  0.01500861  0.76169204     0.20300
C657        C  0.30515878  0.01715502  0.78821644    -0.33000
C658        C  0.27615946  0.99259916  0.79288502     0.01000
C659        C  0.26870283  0.96541523  0.77193557    -0.24300
C660        C  0.35266223  0.95652276  0.66335830    -0.28900
C661        C  0.38065163  0.98193010  0.65440473     0.06700
C662        C  0.38834667  0.00889822  0.67664901    -0.27600
H663        H  0.29742130  0.91202410  0.68346057     0.11400
H664        H  0.26090358  0.91605883  0.73017139     0.12500
H665        H  0.40654733  0.55606242  0.73935334     0.11600
H666        H  0.37092071  0.55996994  0.78859357     0.10800
H667        H  0.31913475  0.53941433  0.81641692     0.16200
H668        H  0.24640203  0.94649403  0.77555147     0.12100
H669        H  0.34633343  0.93557882  0.64661680     0.15000
H670        H  0.40979361  0.02860456  0.67047938     0.14800
C671        C  0.14214991  0.95687987  0.68532624    -0.18100
C672        C  0.11811356  0.95349819  0.65997818    -0.20300
C673        C  0.10023366  0.96469820  0.67559866     0.20400
C674        C  0.10616864  0.97890440  0.71755188    -0.03200
C675        C  0.13053042  0.98229310  0.74324821    -0.06300
C676        C  0.14870457  0.97144095  0.72670861     0.20600
C677        C  0.13695444  0.99682367  0.78501776     0.18800
C678        C  0.11868316  0.00765182  0.80076696    -0.17800
C679        C  0.09454465  0.00437431  0.77517393    -0.20000
C680        C  0.08814581  0.99016175  0.73336486     0.20300
C681        C  0.06464109  0.98763718  0.70651563    -0.33000
C682        C  0.05945619  0.97442569  0.66389694     0.01000
C683        C  0.07702267  0.96254436  0.64925769    -0.24300
C684        C  0.17330677  0.97552172  0.75149699    -0.28900
C685        C  0.18023027  0.99010542  0.79302944     0.06700
C686        C  0.16168595  0.00048237  0.80989090    -0.27600
H687        H  0.15585336  0.94830142  0.67227312     0.11400
H688        H  0.11373267  0.94247359  0.62789418     0.12500
H689        H  0.12322778  0.01890754  0.83267448     0.11600
H690        H  0.08107540  0.01326569  0.78790761     0.10800
H691        H  0.05129137  0.99701761  0.71788279     0.16200
H692        H  0.07300407  0.95210334  0.61668465     0.12100
H693        H  0.18712683  0.96713240  0.73825494     0.15000
H694        H  0.16677801  0.01180629  0.84181429     0.14800
C695        C  0.34779029  0.04545210  0.38039411    -0.18100
C696        C  0.36841226  0.04329011  0.40791435    -0.20300
C697        C  0.36614992  0.01551825  0.41579567     0.20400
C698        C  0.34317772  0.98971350  0.39507855    -0.03200
C699        C  0.32245607  0.99192060  0.36693940    -0.06300
C700        C  0.32462641  0.01989999  0.35994328     0.20600
C701        C  0.29924265  0.96605666  0.34652797     0.18800
C702        C  0.29721140  0.93836217  0.35410011    -0.17800
C703        C  0.31761530  0.93614434  0.38214763    -0.20000
C704        C  0.34054691  0.96165058  0.40314334     0.20300
C705        C  0.36039972  0.95944793  0.43284657    -0.33000
C706        C  0.38297039  0.98501782  0.45462127     0.01000
C707        C  0.38599466  0.01305266  0.44493500    -0.24300
C708        C  0.30333057  0.02176010  0.33324765    -0.28900
C709        C  0.28006327  0.99605995  0.31319079     0.06700
C710        C  0.27824603  0.96834288  0.31964771    -0.27600
H711        H  0.34983866  0.06708448  0.37536686     0.11400
H712        H  0.38594318  0.06335555  0.42355801     0.12500
H713        H  0.27955399  0.91824541  0.33866981     0.11600
H714        H  0.31527883  0.91445373  0.38780262     0.10800
H715        H  0.35787284  0.93777062  0.43966528     0.16200
H716        H  0.40323282  0.03298297  0.46125976     0.12100
H717        H  0.30453714  0.04306737  0.32855155     0.15000
H718        H  0.26006307  0.94846736  0.30449965     0.14800
C719        C  0.09528186  0.00283211  0.32559234    -0.18100
C720        C  0.12007961  0.00676596  0.30121060    -0.20300
C721        C  0.13971600  0.99835286  0.31939171     0.20400
C722        C  0.13417504  0.98579144  0.36256480    -0.03200
C723        C  0.10919808  0.98184575  0.38713014    -0.06300
C724        C  0.08970658  0.99059688  0.36877835     0.20600
C725        C  0.10395763  0.96939952  0.43028787     0.18800
C726        C  0.12327375  0.96063669  0.44842342    -0.17800
C727        C  0.14793166  0.96458486  0.42418561    -0.20000
C728        C  0.15368179  0.97726358  0.38142096     0.20300
C729        C  0.17857285  0.98147457  0.35726987    -0.33000
C730        C  0.18436474  0.99379580  0.31408912     0.01000
C731        C  0.16471203  0.00216453  0.29528803    -0.24300
C732        C  0.06547301  0.98751793  0.39435283    -0.28900
C733        C  0.06084449  0.97602892  0.43810401     0.06700
C734        C  0.07988817  0.96646144  0.45520085    -0.27600
H735        H  0.08067035  0.00974801  0.31085723     0.11400
H736        H  0.12394679  0.01649899  0.26816341     0.12500
H737        H  0.11945662  0.95100115  0.48150017     0.11600
H738        H  0.16264283  0.95779271  0.43907665     0.10800
H739        H  0.19330257  0.97468517  0.37209291     0.16200
H740        H  0.16892829  0.01175646  0.26209275     0.12100
H741        H  0.05101066  0.99505660  0.38095938     0.15000
H742        H  0.07639118  0.95728966  0.48862555     0.14800
C743        C  0.18714342  0.00117417  0.03018814    -0.18100
C744        C  0.18723283  0.00070439  0.07691860    -0.20300
C745        C  0.21201130  0.00374358  0.10037688     0.20400
C746        C  0.23710394  0.00766773  0.07645103    -0.03200
C747        C  0.23701717  0.00815038  0.02919202    -0.06300
C748        C  0.21182939  0.00467837  0.00598219     0.20600
C749        C  0.26192281  0.01161024  0.00522479     0.18800
C750        C  0.28687504  0.01509955  0.02871657    -0.17800
C751        C  0.28696517  0.01463836  0.07546544    -0.20000
C752        C  0.26211115  0.01068229  0.09968331     0.20300
C753        C  0.26169238  0.00932967  0.14661294    -0.33000
C754        C  0.23659115  0.00502554  0.17088228     0.01000
C755        C  0.21195597  0.00255197  0.14725645    -0.24300
C756        C  0.21149144  0.00414317  0.95904737    -0.28900
C757        C  0.23589751  0.00671282  0.93469639     0.06700
C758        C  0.26122568  0.01091595  0.95827788    -0.27600
H759        H  0.16760928  0.99849800  0.01294157     0.11400
H760        H  0.16777409  0.99770922  0.09474003     0.12500
H761        H  0.30624485  0.01787410  0.01089102     0.11600
H762        H  0.30642125  0.01710175  0.09271122     0.10800
H763        H  0.28090424  0.01142063  0.16418433     0.16200
H764        H  0.19243149  0.99923432  0.16527611     0.12100
H765        H  0.19181301  0.00092529  0.94156850     0.15000
H766        H  0.28027056  0.01308416  0.94016488     0.14800
C767        C  0.40411488  0.86777963  0.77921547    -0.18100
C768        C  0.38378633  0.84359756  0.80542341    -0.20300
C769        C  0.35471788  0.82417652  0.78998176     0.20400
C770        C  0.34603273  0.82947837  0.74788803    -0.03200
C771        C  0.36650876  0.85378253  0.72145783    -0.06300
C772        C  0.39576260  0.87298872  0.73705462     0.20600
C773        C  0.35780072  0.85848411  0.67902319     0.18800
C774        C  0.32874439  0.83938130  0.66364430    -0.17800
C775        C  0.30848956  0.81545041  0.68983684    -0.20000
C776        C  0.31699859  0.81018704  0.73174237     0.20300
C777        C  0.29705300  0.78556506  0.75725349    -0.33000
C778        C  0.30553683  0.77947564  0.79878442     0.01000
C779        C  0.33435480  0.79923968  0.81533284    -0.24300
C780        C  0.41623053  0.89656397  0.70974002    -0.28900
C781        C  0.40777089  0.90068107  0.66685934     0.06700
C782        C  0.37841944  0.88179635  0.65215371    -0.27600
H783        H  0.42648011  0.88219142  0.79171152     0.11400
H784        H  0.39091546  0.83990034  0.83759013     0.12500
H785        H  0.32176940  0.84277029  0.63114044     0.11600
H786        H  0.28623413  0.80080759  0.67705009     0.10800
H787        H  0.27489278  0.77081301  0.74419787     0.16200
H788        H  0.34117675  0.79483848  0.84727230     0.12100
H789        H  0.43892121  0.91091331  0.72108106     0.15000
H790        H  0.37170806  0.88495846  0.61926295     0.14800
C791        C  0.17446188  0.60169052  0.76571377    -0.18100
C792        C  0.15191345  0.58189640  0.73676047    -0.20300
C793        C  0.13621785  0.59167495  0.71016405     0.20400
C794        C  0.14317186  0.62168563  0.71308441    -0.03200
C795        C  0.16626228  0.64179627  0.74181025    -0.06300
C796        C  0.18194896  0.63173979  0.76837426     0.20600
C797        C  0.17396822  0.67205932  0.74334608     0.18800
C798        C  0.15806810  0.68178178  0.71716291    -0.17800
C799        C  0.13488740  0.66177960  0.68934132    -0.20000
C800        C  0.12741761  0.63174548  0.68676623     0.20300
C801        C  0.10494949  0.61181619  0.65757387    -0.33000
C802        C  0.09851249  0.58207718  0.65329149     0.01000
C803        C  0.11412661  0.57216183  0.68011406    -0.24300
C804        C  0.20519131  0.65201817  0.79640123    -0.28900
C805        C  0.21351805  0.68237162  0.79701052     0.06700
C806        C  0.19774659  0.69215980  0.77044261    -0.27600
H807        H  0.18627475  0.59355837  0.78566839     0.11400
H808        H  0.14684347  0.55890366  0.73502125     0.12500
H809        H  0.16365174  0.70493744  0.71803878     0.11600
H810        H  0.12307794  0.66989997  0.66936432     0.10800
H811        H  0.09327442  0.61978910  0.63692796     0.16200
H812        H  0.10930329  0.54929117  0.67727518     0.12100
H813        H  0.21757105  0.64449044  0.81629578     0.15000
H814        H  0.20414183  0.71556464  0.77077395     0.14800
C815        C  0.31031060  0.81417026  0.41854860    -0.18100
C816        C  0.33003631  0.83911180  0.44359986    -0.20300
C817        C  0.35905988  0.85836151  0.42821986     0.20400
C818        C  0.36823727  0.85278051  0.38683401    -0.03200
C819        C  0.34823096  0.82751769  0.36142330    -0.06300
C820        C  0.31925432  0.80807893  0.37763856     0.20600
C821        C  0.35729333  0.82150865  0.32021125     0.18800
C822        C  0.38633787  0.84104468  0.30477247    -0.17800
C823        C  0.40624267  0.86604456  0.33008848    -0.20000
C824        C  0.39748991  0.87209206  0.37130137     0.20300
C825        C  0.41758259  0.89653079  0.39786044    -0.33000
C826        C  0.40872012  0.90147773  0.43991416     0.01000
C827        C  0.37923722  0.88260041  0.45421861    -0.24300
C828        C  0.29969701  0.78268921  0.35300787    -0.28900
C829        C  0.30838051  0.77618825  0.31198251     0.06700
C830        C  0.33724768  0.79594869  0.29555695    -0.27600
H831        H  0.28809798  0.79948227  0.43137164     0.11400
H832        H  0.32268506  0.84314841  0.47532556     0.12500
H833        H  0.39379157  0.83681212  0.27330820     0.11600
H834        H  0.42860788  0.88046858  0.31763150     0.10800
H835        H  0.44034354  0.91080326  0.38678555     0.16200
H836        H  0.37215874  0.88633813  0.48643027     0.12100
H837        H  0.27753361  0.76793369  0.36598931     0.15000
H838        H  0.34427123  0.79120077  0.26408748     0.14800
C839        C  0.16159487  0.67989012  0.39343926    -0.18100
C840        C  0.13793684  0.66014207  0.42065216    -0.20300
C841        C  0.12915490  0.62974748  0.42208623     0.20400
C842        C  0.14410255  0.61904354  0.39524617    -0.03200
C843        C  0.16768752  0.63893656  0.36703311    -0.06300
C844        C  0.17666953  0.66954931  0.36668627     0.20600
C845        C  0.18258199  0.62832812  0.33981598     0.18800
C846        C  0.17377995  0.59787399  0.34142460    -0.17800
C847        C  0.15080073  0.57827464  0.37004754    -0.20000
C848        C  0.13587613  0.58864388  0.39722923     0.20300
C849        C  0.11334624  0.56937657  0.42701988    -0.33000
C850        C  0.09849435  0.57999040  0.45423463     0.01000
C851        C  0.10620336  0.61010414  0.45075065    -0.24300
C852        C  0.20085827  0.68942313  0.34016578    -0.28900
C853        C  0.21587904  0.67918858  0.31291687     0.06700
C854        C  0.20632260  0.64848691  0.31226666    -0.27600
H855        H  0.16819198  0.70332524  0.39345490     0.11400
H856        H  0.12677047  0.66875290  0.44111412     0.12500
H857        H  0.18494050  0.58926332  0.32096673     0.11600
H858        H  0.14481008  0.55501211  0.37109265     0.10800
H859        H  0.10761816  0.54622123  0.42941728     0.16200
H860        H  0.09521833  0.61861370  0.47185920     0.12100
H861        H  0.20811735  0.71304143  0.34072437     0.15000
H862        H  0.21806654  0.64055183  0.29172814     0.14800
C863        C  0.23179303  0.66602350  0.03048405    -0.18100
C864        C  0.23172676  0.66594916  0.07727500    -0.20300
C865        C  0.25354134  0.69059120  0.10127404     0.20400
C866        C  0.27635106  0.71502628  0.07777005    -0.03200
C867        C  0.27643451  0.71509488  0.03047804    -0.06300
C868        C  0.25366903  0.69076222  0.00674026     0.20600
C869        C  0.29865414  0.74000143  0.00704059     0.18800
C870        C  0.32124336  0.76406359  0.03098311    -0.17800
C871        C  0.32114503  0.76401262  0.07772505    -0.20000
C872        C  0.29849002  0.73985943  0.10143943     0.20300
C873        C  0.29710489  0.74057314  0.14827479    -0.33000
C874        C  0.27370989  0.71687455  0.17212347     0.01000
C875        C  0.25240109  0.69162626  0.14818679    -0.24300
C876        C  0.25243929  0.69211748  0.95988428    -0.28900
C877        C  0.27354524  0.71765447  0.93630137     0.06700
C878        C  0.29721046  0.74101062  0.96025079    -0.27600
H879        H  0.21427429  0.64701713  0.01287168     0.11400
H880        H  0.21416880  0.64685189  0.09470870     0.12500
H881        H  0.33861090  0.78330585  0.01354597     0.11600
H882        H  0.33845249  0.78318523  0.09533568     0.10800
H883        H  0.31383424  0.76010020  0.16598201     0.16200
H884        H  0.23437334  0.67308465  0.16588638     0.12100
H885        H  0.23429827  0.67377406  0.94205330     0.15000
H886        H  0.31388510  0.76068596  0.94274085     0.14800
C887        C  0.73527966  0.20494175  0.28794032     0.79900
N888        N  0.75674820  0.22882995  0.31042980    -0.78400
C889        C  0.78182636  0.24988283  0.28951627     0.82400
N890        N  0.78489281  0.24709180  0.24494121    -0.78300
C891        C  0.76339419  0.22333967  0.22163520     0.82500
N892        N  0.73872310  0.20217319  0.24357192    -0.80000
C893        C  0.73278444  0.20906050  0.82119512     0.79900
N894        N  0.75270860  0.23419735  0.79931438    -0.78400
C895        C  0.77670113  0.25635315  0.82088325     0.82400
N896        N  0.78018705  0.25336401  0.86527345    -0.78300
C897        C  0.76009924  0.22841712  0.88784772     0.82500
N898        N  0.73658098  0.20620164  0.86535382    -0.80000
C899        C  0.75376264  0.49324386  0.29117499     0.79900
N900        N  0.75762538  0.49953704  0.24683588    -0.78400
C901        C  0.73638722  0.50144512  0.22272677     0.82400
N902        N  0.71130224  0.49740560  0.24364499    -0.78300
C903        C  0.70718348  0.49097564  0.28803517     0.82500
N904        N  0.72845050  0.48871250  0.31127445    -0.80000
C905        C  0.76116546  0.50350919  0.82004903     0.79900
N906        N  0.76320108  0.50726661  0.86501065    -0.78400
C907        C  0.74091234  0.50772966  0.88834453     0.82400
N908        N  0.71648362  0.50447657  0.86605488    -0.78300
C909        C  0.71428811  0.50068376  0.82090371     0.82500
N910        N  0.73664854  0.49995842  0.79851899    -0.80000
C911        C  0.96964019  0.23237587  0.28739173     0.79900
N912        N  0.97329533  0.21179834  0.31005049    -0.78400
C913        C  0.97091336  0.18750828  0.28885685     0.82400
N914        N  0.96542477  0.18439153  0.24418939    -0.78300
C915        C  0.96205830  0.20512517  0.22101736     0.82500
N916        N  0.96398154  0.22896254  0.24300601    -0.80000
C917        C  0.96228874  0.22348725  0.81853274     0.79900
N918        N  0.95752804  0.22163197  0.86325518    -0.78400
C919        C  0.95581743  0.19839734  0.88707010     0.82400
N920        N  0.95844771  0.17669582  0.86538372    -0.78300
C921        C  0.96328894  0.17850178  0.82057271     0.82500
N922        N  0.96554581  0.20216354  0.79766334    -0.80000
O923        O  0.92311052  0.00765740  0.50029351    -0.88500
C924        C  0.57423199  0.05907342  0.62207069     1.11600
O925        O  0.95699623  0.47907783  0.55479116    -1.36300
O926        O  0.55592839  0.06685261  0.50783485    -0.90000
O927        O  0.89645670  0.45676302  0.50675598    -0.90600
O928        O  0.95460828  0.44593935  0.46013275    -0.79400
O929        O  0.98912439  0.03803670  0.51079829    -1.01500
C930        C  0.53904924  0.47454864  0.47173538     1.21600
O931        O  0.98499003  0.44529903  0.55549758    -1.36400
Mn932      Mn  0.98701122  0.47741748  0.60404232     1.82100
O933        O  0.51664023  0.47579884  0.45945034    -0.78500
O934        O  0.57813829  0.03947191  0.50629906    -0.87900
C935        C  0.54195246  0.47675881  0.63558427     1.12700
C936        C  0.57532907  0.06114420  0.49241475     1.07400
O937        O  0.95501403  0.44673013  0.65013337    -0.79500
O938        O  0.51750246  0.00632571  0.55555147    -1.33200
O939        O  0.92749551  0.42115825  0.59675685    -0.98700
C940        C  0.98168638  0.38890342  0.49049412     1.06100
Mn941      Mn  0.55841967  0.00621714  0.55557125     1.48600
O942        O  0.95704466  0.38562131  0.50419985    -0.87900
Mn943      Mn  0.91373147  0.44099035  0.55570394     1.49600
O944        O  0.92504857  0.50784803  0.60346252    -0.91700
C945        C  0.98903773  0.03501019  0.47053826     1.19300
C946        C  0.90389424  0.48368322  0.61942645     1.11400
Mn947      Mn  0.98688638  0.47697294  0.50595225     1.81000
O948        O  0.54448222  0.47552181  0.59533523    -0.96900
Mn949      Mn  0.95508051  0.02053291  0.55131738     1.49300
C950        C  0.90240455  0.48186772  0.49065177     1.07900
Mn951      Mn  0.52400936  0.44145462  0.55435081     1.49900
C952        C  0.98056131  0.38706620  0.61985582     1.10800
O953        O  0.92688021  0.42092197  0.51365759    -1.02700
O954        O  0.57771248  0.03812496  0.60681317    -0.92400
C955        C  0.93077677  0.42375913  0.47346001     1.22100
O956        O  0.54335832  0.47459167  0.51176524    -1.03100
O957        O  0.55474290  0.06478775  0.60707550    -0.90500
O958        O  0.50827761  0.40875489  0.60456113    -0.90100
O959        O  0.89797600  0.45792963  0.60590825    -0.90100
Mn960      Mn  0.52260291  0.04944688  0.55684007     1.47900
O961        O  0.51941574  0.47735832  0.64930338    -0.78600
C962        C  0.93133674  0.42438990  0.63682303     1.15100
O963        O  0.98759190  0.01151248  0.45641632    -0.77300
O964        O  0.98557064  0.00824019  0.64583326    -0.76900
Mn965      Mn  0.94385276  0.40430094  0.55490641     1.51100
O966        O  0.50708957  0.40832127  0.50503240    -0.89300
O967        O  0.98800872  0.03721430  0.59419093    -0.96800
O968        O  0.95644686  0.38408092  0.60420551    -0.91800
C969        C  0.98673220  0.03198037  0.63402837     1.12900
C970        C  0.45151963  0.05710901  0.77492816    -0.18100
C971        C  0.44823728  0.07812422  0.80001655    -0.20300
C972        C  0.95775278  0.10518826  0.78452380     0.20400
C973        C  0.97575745  0.11481348  0.74587960    -0.03200
C974        C  0.97941975  0.09418989  0.71980221    -0.06300
C975        C  0.96508415  0.06376234  0.73217188     0.20600
C976        C  0.99716568  0.10403544  0.68099516     0.18800
C977        C  0.01137305  0.13424499  0.66872626    -0.17800
C978        C  0.00779081  0.15457690  0.69455479    -0.20000
C979        C  0.98996411  0.14509152  0.73290465     0.20300
C980        C  0.98588825  0.16537246  0.75812719    -0.33000
C981        C  0.96790949  0.15620224  0.79646405     0.01000
C982        C  0.95412343  0.12605531  0.80995577    -0.24300
C983        C  0.47134664  0.04448322  0.70941160    -0.28900
C984        C  0.98570246  0.05313745  0.66602285     0.06700
C985        C  0.00008217  0.08351573  0.65442261    -0.27600
H986        H  0.44112350  0.03423744  0.78677041     0.11400
H987        H  0.43548241  0.07105472  0.83063364     0.12500
H988        H  0.02503959  0.14205245  0.63908270     0.11600
H989        H  0.01887897  0.17783897  0.68423105     0.10800
H990        H  0.99687338  0.18860612  0.74770728     0.16200
H991        H  0.44572711  0.12275807  0.84158169     0.12100
H992        H  0.46079531  0.02136288  0.72012215     0.15000
H993        H  0.01326682  0.09111567  0.62421240     0.14800
C994        C  0.02385631  0.33131506  0.69027840    -0.18100
C995        C  0.02108822  0.30802173  0.71726658    -0.20300
C996        C  0.99474771  0.29017914  0.74125048     0.20400
C997        C  0.97095067  0.29585270  0.73804448    -0.03200
C998        C  0.97357606  0.31907184  0.71014154    -0.06300
C999        C  0.00024475  0.33697756  0.68638111     0.20600
C1000       C  0.94946846  0.32418766  0.70572636     0.18800
C1001       C  0.92311012  0.30627969  0.72972938    -0.17800
C1002       C  0.92068598  0.28359586  0.75796935    -0.20000
C1003       C  0.94445332  0.27817563  0.76238678     0.20300
C1004       C  0.94211768  0.25520468  0.79020331    -0.33000
C1005       C  0.96554466  0.24914604  0.79265840     0.01000
C1006       C  0.99170788  0.26658840  0.76802888    -0.24300
C1007       C  0.00270040  0.35991840  0.65859205    -0.28900
C1008       C  0.97862205  0.36486763  0.65317646     0.06700
C1009       C  0.95205063  0.34687518  0.67703299    -0.27600
H1010       H  0.04444970  0.34478238  0.67211452     0.11400
H1011       H  0.03954326  0.30397128  0.71940011     0.12500
H1012       H  0.90436690  0.30987221  0.72674408     0.11600
H1013       H  0.90012174  0.27015674  0.77616456     0.10800
H1014       H  0.92178832  0.24142597  0.80878887     0.16200
H1015       H  0.00969594  0.26178151  0.76989609     0.12100
H1016       H  0.02310657  0.37330286  0.63994865     0.15000
H1017       H  0.93332145  0.35042257  0.67309208     0.14800
C1018       C  0.98824331  0.12895761  0.45763958    -0.18100
C1019       C  0.98503619  0.14987213  0.43263066    -0.20300
C1020       C  0.98177051  0.14701505  0.38615964     0.20400
C1021       C  0.98199049  0.12295625  0.36449159    -0.03200
C1022       C  0.98513879  0.10169723  0.38980319    -0.06300
C1023       C  0.98811777  0.10475115  0.43650548     0.20600
C1024       C  0.48043563  0.07145426  0.37284397     0.18800
C1025       C  0.46856491  0.06487163  0.32948726    -0.17800
C1026       C  0.46746604  0.08679908  0.30353365    -0.20000
C1027       C  0.47811634  0.11569590  0.32052979     0.20300
C1028       C  0.47583127  0.13746170  0.29560091    -0.33000
C1029       C  0.97474309  0.16506649  0.31446526     0.01000
C1030       C  0.97815383  0.16775393  0.36112118    -0.24300
C1031       C  0.99035524  0.08329805  0.46167053    -0.28900
C1032       C  0.98921157  0.05825520  0.44125875     0.06700
C1033       C  0.48063081  0.04932255  0.39986413    -0.27600
H1034       H  0.99052573  0.13153269  0.49350153     0.10500
H1035       H  0.98496628  0.16827796  0.44977077     0.12500
H1036       H  0.45979748  0.04263403  0.31579931     0.11600
H1037       H  0.45787654  0.08102695  0.27040409     0.10800
H1038       H  0.46571182  0.13185350  0.26276536     0.16200
H1039       H  0.97787959  0.18603583  0.37829303     0.12100
H1040       H  0.99230808  0.08585554  0.49760502     0.15000
H1041       H  0.47135542  0.02672814  0.38734593     0.14800
C1042       C  0.92777916  0.29351509  0.34090563    -0.18100
C1043       C  0.92930369  0.31534985  0.37002805    -0.20300
C1044       C  0.95495145  0.33263135  0.39578945     0.20400
C1045       C  0.97978416  0.32870282  0.39084424    -0.03200
C1046       C  0.97807799  0.30635880  0.36212406    -0.06300
C1047       C  0.95179576  0.28840068  0.33747112     0.20600
C1048       C  0.00227372  0.30123627  0.35944336     0.18800
C1049       C  0.53125507  0.32130367  0.38202500    -0.17800
C1050       C  0.53237160  0.34394146  0.40873129    -0.20000
C1051       C  0.00591986  0.34629968  0.41587363     0.20300
C1052       C  0.00675067  0.36694190  0.44671433    -0.33000
C1053       C  0.98146771  0.36966324  0.45393131     0.01000
C1054       C  0.95590331  0.35298670  0.42751541    -0.24300
C1055       C  0.94965625  0.26498818  0.31113702    -0.28900
C1056       C  0.97303280  0.25880286  0.31070553     0.06700
C1057       C  0.99938148  0.27720985  0.33421825    -0.27600
H1058       H  0.90755357  0.28008468  0.32204082     0.11400
H1059       H  0.91012900  0.31831265  0.37305738     0.12500
H1060       H  0.55136128  0.32010935  0.37764768     0.11600
H1061       H  0.55322179  0.35971999  0.42444166     0.10800
H1062       H  0.02665405  0.37986101  0.46656027     0.16200
H1063       H  0.93648324  0.35534832  0.43231870     0.12100
H1064       H  0.92937348  0.25070511  0.29277047     0.15000
H1065       H  0.52264789  0.27463717  0.33277775     0.14800
C1066       C  0.44948208  0.14980604  0.03275392    -0.18100
C1067       C  0.45089342  0.15038979  0.07948936    -0.20300
C1068       C  0.45749263  0.17641519  0.10308464     0.20400
C1069       C  0.95496278  0.20049869  0.07789312    -0.03200
C1070       C  0.95402254  0.19953362  0.03078290    -0.06300
C1071       C  0.45468635  0.17526830  0.00871018     0.20600
C1072       C  0.95861851  0.22477112  0.00631814     0.18800
C1073       C  0.96399312  0.25067088  0.02909979    -0.17800
C1074       C  0.96490683  0.25162887  0.07574832    -0.20000
C1075       C  0.96047445  0.22668679  0.10040156     0.20300
C1076       C  0.96191739  0.22767508  0.14712603    -0.33000
C1077       C  0.95830295  0.20294282  0.17185389     0.01000
C1078       C  0.45952203  0.17742843  0.14995203    -0.24300
C1079       C  0.45403565  0.17514624  0.96173955    -0.28900
C1080       C  0.95366487  0.19815116  0.93658082     0.06700
C1081       C  0.95823521  0.22384839  0.95952274    -0.27600
H1082       H  0.44451926  0.12949719  0.01539297     0.11400
H1083       H  0.44696851  0.13048159  0.09719535     0.12500
H1084       H  0.96766124  0.27028886  0.01079523     0.11600
H1085       H  0.96925146  0.27193123  0.09253320     0.10800
H1086       H  0.96656521  0.24803067  0.16410110     0.16200
H1087       H  0.45597267  0.15780686  0.16814638     0.12100
H1088       H  0.44947534  0.15509383  0.94391550     0.15000
H1089       H  0.96225016  0.24351376  0.94099851     0.14800
C1090       C  0.80593731  0.44093951  0.69304843    -0.18100
C1091       C  0.78581620  0.44401974  0.72022622    -0.20300
C1092       C  0.79495988  0.47059859  0.74393590     0.20400
C1093       C  0.82469159  0.49424626  0.74052642    -0.03200
C1094       C  0.84489507  0.49127676  0.71241010    -0.06300
C1095       C  0.83540997  0.46442821  0.68865562     0.20600
C1096       C  0.87435871  0.51524889  0.70751697     0.18800
C1097       C  0.87725687  0.03939594  0.72456927    -0.17800
C1098       C  0.85682290  0.04117582  0.75301809    -0.20000
C1099       C  0.83408749  0.52095229  0.76465923     0.20300
C1100       C  0.81360382  0.52368274  0.79227067    -0.33000
C1101       C  0.78377330  0.50034372  0.79470879     0.01000
C1102       C  0.77466775  0.47396378  0.77050365    -0.24300
C1103       C  0.85531636  0.46174278  0.66016007    -0.28900
C1104       C  0.88444045  0.48576611  0.65385999     0.06700
C1105       C  0.89388167  0.51244267  0.67801797    -0.27600
H1106       H  0.79826997  0.42018228  0.67493685     0.11400
H1107       H  0.76311722  0.42569442  0.72260426     0.12500
H1108       H  0.89854768  0.05925998  0.71847613     0.11600
H1109       H  0.86290887  0.06243801  0.76843615     0.10800
H1110       H  0.81280164  0.03889801  0.80304146     0.16200
H1111       H  0.75169649  0.45605136  0.77241905     0.12100
H1112       H  0.84768017  0.44121404  0.64145112     0.15000
H1113       H  0.91627780  0.53112198  0.67348084     0.14800
C1114       C  0.66811242  0.49878957  0.67633016    -0.18100
C1115       C  0.64413789  0.49528788  0.65067929    -0.20300
C1116       C  0.61730112  0.48889446  0.67118317     0.20400
C1117       C  0.61449611  0.48595180  0.71794583    -0.03200
C1118       C  0.63884757  0.48950231  0.74396827    -0.06300
C1119       C  0.66571418  0.49598081  0.72289403     0.20600
C1120       C  0.63638572  0.48666295  0.79085959     0.18800
C1121       C  0.60931140  0.47997982  0.81113376    -0.17800
C1122       C  0.58514988  0.47649573  0.78530084    -0.20000
C1123       C  0.58748440  0.47957548  0.73860188     0.20300
C1124       C  0.56348783  0.47649590  0.71214419    -0.33000
C1125       C  0.56626237  0.47941097  0.66529251     0.01000
C1126       C  0.59333663  0.48551016  0.64542966    -0.24300
C1127       C  0.68981756  0.49959835  0.74854584    -0.28900
C1128       C  0.68794399  0.49701279  0.79536804     0.06700
C1129       C  0.66101230  0.49055650  0.81640409    -0.27600
H1130       H  0.68863042  0.50375444  0.65964394     0.11400
H1131       H  0.64658644  0.49761523  0.61478049     0.12500
H1132       H  0.60683580  0.47754727  0.84702632     0.11600
H1133       H  0.56462591  0.47146656  0.80192493     0.10800
H1134       H  0.54278365  0.47176132  0.72786459     0.16200
H1135       H  0.59600449  0.48802754  0.60953317     0.12100
H1136       H  0.71030930  0.50467299  0.73167163     0.15000
H1137       H  0.65912197  0.48831097  0.85238174     0.14800
C1138       C  0.85815352  0.53293598  0.34020568    -0.18100
C1139       C  0.87894591  0.53153046  0.36840021    -0.20300
C1140       C  0.87001259  0.50755742  0.39815208     0.20400
C1141       C  0.83981308  0.48462220  0.39914455    -0.03200
C1142       C  0.81871897  0.48634661  0.37131917    -0.06300
C1143       C  0.82795561  0.51058339  0.34157343     0.20600
C1144       C  0.78833119  0.46403560  0.37375204     0.18800
C1145       C  0.77946785  0.43979130  0.40286852    -0.17800
C1146       C  0.80041165  0.43776385  0.42975422    -0.20000
C1147       C  0.83057920  0.46021044  0.42843407     0.20300
C1148       C  0.85150366  0.45895223  0.45665921    -0.33000
C1149       C  0.88149312  0.48223744  0.45709178     0.01000
C1150       C  0.89059661  0.50637867  0.42743277    -0.24300
C1151       C  0.80677014  0.51222561  0.31424923    -0.28900
C1152       C  0.77637614  0.49051006  0.31751633     0.06700
C1153       C  0.76735547  0.46655000  0.34738747    -0.27600
H1154       H  0.86565123  0.55172521  0.31767916     0.11400
H1155       H  0.90204711  0.54929825  0.36704117     0.12500
H1156       H  0.75623992  0.42237333  0.40499353     0.11600
H1157       H  0.79297005  0.41889763  0.45204588     0.10800
H1158       H  0.84416808  0.44037990  0.47956976     0.16200
H1159       H  0.91364696  0.52432793  0.42733985     0.12100
H1160       H  0.81373430  0.53086277  0.29152740     0.15000
H1161       H  0.74392086  0.44969944  0.34981781     0.14800
C1162       C  0.59291531  0.49843514  0.32618083    -0.18100
C1163       C  0.61675438  0.50100630  0.30060594    -0.20300
C1164       C  0.63566774  0.49130864  0.31766501     0.20400
C1165       C  0.63000983  0.47834596  0.36059556    -0.03200
C1166       C  0.60600202  0.47572161  0.38630593    -0.06300
C1167       C  0.58748260  0.48609123  0.36931859     0.20600
C1168       C  0.60101245  0.46330888  0.42949938     0.18800
C1169       C  0.61935154  0.45296308  0.44633333    -0.17800
C1170       C  0.64301161  0.45556275  0.42094825    -0.20000
C1171       C  0.64873232  0.46850973  0.37839181     0.20300
C1172       C  0.67323225  0.47227482  0.35384253    -0.33000
C1173       C  0.67973086  0.48581994  0.31150151     0.01000
C1174       C  0.66045100  0.49483185  0.29315633    -0.24300
C1175       C  0.56449324  0.48461305  0.39631304    -0.28900
C1176       C  0.56031919  0.47326766  0.44013848     0.06700
C1177       C  0.57830842  0.46212058  0.45587288    -0.27600
H1178       H  0.57899609  0.50652734  0.31245279     0.11400
H1179       H  0.62064189  0.51097022  0.26773186     0.12500
H1180       H  0.61566799  0.44330085  0.47937684     0.11600
H1181       H  0.65716916  0.44778650  0.43497370     0.10800
H1182       H  0.68754289  0.46480675  0.36823380     0.16200
H1183       H  0.66513039  0.50522682  0.26051171     0.12100
H1184       H  0.55075726  0.49332809  0.38400899     0.15000
H1185       H  0.57503868  0.45301510  0.48931946     0.14800
C1186       C  0.70972817  0.53036120  0.03272753    -0.18100
C1187       C  0.70915908  0.52954804  0.07946719    -0.20300
C1188       C  0.72516880  0.51882019  0.10315320     0.20400
C1189       C  0.74252996  0.50950901  0.07945358    -0.03200
C1190       C  0.74309464  0.51031713  0.03224447    -0.06300
C1191       C  0.72630554  0.52044270  0.00875339     0.20600
C1192       C  0.76002277  0.50048243  0.00858717     0.18800
C1193       C  0.77642391  0.49020411  0.03226118    -0.17800
C1194       C  0.77585929  0.48939511  0.07895509    -0.20000
C1195       C  0.75888891  0.49886297  0.10285526     0.20300
C1196       C  0.75753741  0.49730549  0.14965638    -0.33000
C1197       C  0.73959647  0.50570737  0.17356243     0.01000
C1198       C  0.72368807  0.51671078  0.14998706    -0.24300
C1199       C  0.72597591  0.51997308  0.96178673    -0.28900
C1200       C  0.74248594  0.50981799  0.93790587     0.06700
C1201       C  0.75982486  0.50057040  0.96171180    -0.27600
H1202       H  0.69687015  0.53840393  0.01528441     0.11400
H1203       H  0.69586378  0.53697807  0.09710592     0.12500
H1204       H  0.78950484  0.48251981  0.01461178     0.11600
H1205       H  0.78850469  0.48110164  0.09638983     0.10800
H1206       H  0.76974132  0.48860024  0.16738018     0.16200
H1207       H  0.70994172  0.52341123  0.16808064     0.12100
H1208       H  0.71273596  0.52736532  0.94380975     0.15000
H1209       H  0.77252878  0.49255109  0.94374556     0.14800
C1210       C  0.89802342  0.37167322  0.78270163    -0.18100
C1211       C  0.87627314  0.34809837  0.80829176    -0.20300
C1212       C  0.84845879  0.32775187  0.78968522     0.20400
C1213       C  0.84249979  0.33131080  0.74486979    -0.03200
C1214       C  0.86440565  0.35508941  0.71910264    -0.06300
C1215       C  0.89237449  0.37540878  0.73803217     0.20600
C1216       C  0.85836825  0.35832004  0.67425333     0.18800
C1217       C  0.83064973  0.33804729  0.65547698    -0.17800
C1218       C  0.80900552  0.31455647  0.68095562    -0.20000
C1219       C  0.81474690  0.31094735  0.72558733     0.20300
C1220       C  0.79331416  0.28706758  0.75098848    -0.33000
C1221       C  0.79909218  0.28297264  0.79557646     0.01000
C1222       C  0.82667659  0.30369867  0.81484394    -0.24300
C1223       C  0.91421866  0.39878569  0.71177433    -0.28900
C1224       C  0.90834902  0.40178050  0.66682036     0.06700
C1225       C  0.88023608  0.38153941  0.64863196    -0.27600
H1226       H  0.91933401  0.38693431  0.79784266     0.11400
H1227       H  0.88128033  0.34568660  0.84262197     0.12500
H1228       H  0.82576401  0.34027103  0.62099674     0.11600
H1229       H  0.78782051  0.29909117  0.66565353     0.10800
H1230       H  0.77217433  0.27144916  0.73569270     0.16200
H1231       H  0.83147292  0.30081230  0.84908946     0.12100
H1232       H  0.93587570  0.41410407  0.72590080     0.15000
H1233       H  0.87538249  0.38364331  0.61405042     0.14800
C1234       C  0.67249734  0.10456952  0.76879072    -0.18100
C1235       C  0.65046042  0.08346056  0.74038965    -0.20300
C1236       C  0.63307588  0.09125370  0.71393042     0.20400
C1237       C  0.63758947  0.12044346  0.71691766    -0.03200
C1238       C  0.66018808  0.14187078  0.74480301    -0.06300
C1239       C  0.67780344  0.13394138  0.77082409     0.20600
C1240       C  0.66559851  0.17144060  0.74577896     0.18800
C1241       C  0.64766274  0.17901754  0.72050669    -0.17800
C1242       C  0.62490200  0.15767009  0.69368684    -0.20000
C1243       C  0.62002085  0.12852168  0.69118706     0.20300
C1244       C  0.59844989  0.10767465  0.66226960    -0.33000
C1245       C  0.59467093  0.07899515  0.65727013     0.01000
C1246       C  0.61180085  0.07072320  0.68373192    -0.24300
C1247       C  0.70080892  0.15573883  0.79749739    -0.28900
C1248       C  0.70696672  0.18544838  0.79695147     0.06700
C1249       C  0.68922338  0.19308588  0.77128966    -0.27600
H1250       H  0.68575757  0.09805434  0.78854409     0.11400
H1251       H  0.64720354  0.06112911  0.73881905     0.12500
H1252       H  0.65141828  0.20156253  0.72116597     0.11600
H1253       H  0.61151927  0.16413796  0.67414563     0.10800
H1254       H  0.58549251  0.11436010  0.64204765     0.16200
H1255       H  0.60887191  0.04859140  0.68039127     0.12100
H1256       H  0.71467760  0.14995248  0.81718245     0.15000
H1257       H  0.69392462  0.21598172  0.77118573     0.14800
C1258       C  0.81539759  0.30488994  0.43179481    -0.18100
C1259       C  0.83563154  0.32956440  0.45683516    -0.20300
C1260       C  0.86163909  0.35243024  0.43707139     0.20400
C1261       C  0.86744579  0.35046814  0.39163930    -0.03200
C1262       C  0.84685895  0.32548953  0.36618636    -0.06300
C1263       C  0.82075130  0.30270797  0.38647433     0.20600
C1264       C  0.85231336  0.32334619  0.32059532     0.18800
C1265       C  0.87858473  0.34618818  0.30109042    -0.17800
C1266       C  0.89910319  0.37089499  0.32641864    -0.20000
C1267       C  0.89376364  0.37336242  0.37178006     0.20300
C1268       C  0.91430034  0.39800186  0.39781231    -0.33000
C1269       C  0.90867679  0.39984970  0.44343086     0.01000
C1270       C  0.88203489  0.37700207  0.46231443    -0.24300
C1271       C  0.80020081  0.27818951  0.36121627    -0.28900
C1272       C  0.80492863  0.27587752  0.31547707     0.06700
C1273       C  0.83130331  0.29855679  0.29543371    -0.27600
H1274       H  0.79547031  0.28755399  0.44786293     0.11400
H1275       H  0.83094973  0.33073664  0.49179903     0.12500
H1276       H  0.88327309  0.34497875  0.26617053     0.11600
H1277       H  0.91916199  0.38810074  0.31047793     0.10800
H1278       H  0.93480091  0.41527185  0.38293006     0.16200
H1279       H  0.87729729  0.37800761  0.49732357     0.12100
H1280       H  0.78022168  0.26100502  0.37740030     0.15000
H1281       H  0.83539880  0.29707644  0.26033159     0.14800
C1282       C  0.65402224  0.18132699  0.39452058    -0.18100
C1283       C  0.63144874  0.16110045  0.42291621    -0.20300
C1284       C  0.62404862  0.13106553  0.42442798     0.20400
C1285       C  0.63899444  0.12112807  0.39615096    -0.03200
C1286       C  0.66137970  0.14143364  0.36677543    -0.06300
C1287       C  0.66933474  0.17179372  0.36670675     0.20600
C1288       C  0.67634760  0.13152722  0.33840253     0.18800
C1289       C  0.66865582  0.10139133  0.33958621    -0.17800
C1290       C  0.64692676  0.08142978  0.36934466    -0.20000
C1291       C  0.63211545  0.09110161  0.39799393     0.20300
C1292       C  0.61101592  0.07146480  0.42903633    -0.33000
C1293       C  0.59620277  0.08127273  0.45766953     0.01000
C1294       C  0.60248377  0.11100240  0.45446558    -0.24300
C1295       C  0.69302302  0.19222878  0.33981179    -0.28900
C1296       C  0.70836043  0.18262104  0.31207051     0.06700
C1297       C  0.69938223  0.15212946  0.31052600    -0.27600
H1298       H  0.65972884  0.20450874  0.39467619     0.11400
H1299       H  0.62016138  0.16909120  0.44433963     0.12500
H1300       H  0.67990895  0.09337092  0.31812977     0.11600
H1301       H  0.64192662  0.05847035  0.37027812     0.10800
H1302       H  0.60624882  0.04859437  0.43108489     0.16200
H1303       H  0.59136098  0.11885365  0.47652922     0.12100
H1304       H  0.69986561  0.21573309  0.34084346     0.15000
H1305       H  0.71136094  0.14475588  0.28938850     0.14800
C1306       C  0.71976861  0.17475898  0.03039431    -0.18100
C1307       C  0.72034837  0.17387382  0.07704549    -0.20300
C1308       C  0.74335523  0.19746622  0.10112422     0.20400
C1309       C  0.76641702  0.22183910  0.07787557    -0.03200
C1310       C  0.76580383  0.22276388  0.03073509    -0.06300
C1311       C  0.74218212  0.19925900  0.00698161     0.20600
C1312       C  0.78841805  0.24751781  0.00750226     0.18800
C1313       C  0.81183411  0.27074470  0.03153656    -0.17800
C1314       C  0.81246718  0.26980391  0.07821476    -0.20000
C1315       C  0.78967045  0.24565450  0.10172917     0.20300
C1316       C  0.78925226  0.24536427  0.14863309    -0.33000
C1317       C  0.76567596  0.22173398  0.17221961     0.01000
C1318       C  0.74319462  0.19751199  0.14801122    -0.24300
C1319       C  0.74098337  0.20092396  0.96034948    -0.28900
C1320       C  0.76296435  0.22591255  0.93686552     0.06700
C1321       C  0.78688874  0.24892753  0.96078950    -0.27600
H1322       H  0.70151994  0.15646487  0.01265202     0.11400
H1323       H  0.70251545  0.15493120  0.09434617     0.12500
H1324       H  0.82945564  0.28986529  0.01426150     0.11600
H1325       H  0.83055619  0.28824461  0.09597909     0.10800
H1326       H  0.80682463  0.26410461  0.16667454     0.16200
H1327       H  0.72501584  0.17902660  0.16556863     0.12100
H1328       H  0.72247103  0.18295505  0.94251459     0.15000
H1329       H  0.80405650  0.26824473  0.94324040     0.14800
C1330       C  0.73836906  0.70544920  0.28529286     0.79900
N1331       N  0.75939173  0.72997957  0.30706986    -0.78400
C1332       C  0.78329294  0.75196316  0.28531024     0.82400
N1333       N  0.78573557  0.74944792  0.24055382    -0.78300
C1334       C  0.76470296  0.72506351  0.21779170     0.82500
N1335       N  0.74106156  0.70295311  0.24053280    -0.80000
C1336       C  0.73686793  0.70899853  0.81894112     0.79900
N1337       N  0.75630322  0.73488900  0.79816912    -0.78400
C1338       C  0.78116258  0.75600189  0.81938662     0.82400
N1339       N  0.78608147  0.75123770  0.86236300    -0.78300
C1340       C  0.76656863  0.72561790  0.88408497     0.82500
N1341       N  0.74208954  0.70437329  0.86189454    -0.80000
C1342       C  0.75298904  0.99397626  0.28776918     0.79900
N1343       N  0.75652832  0.00027510  0.24348068    -0.78400
C1344       C  0.73530358  0.00251690  0.21994122     0.82400
N1345       N  0.71052546  0.99885311  0.24154596    -0.78300
C1346       C  0.70682238  0.99255663  0.28604699     0.82500
N1347       N  0.72807825  0.98992198  0.30855500    -0.80000
C1348       C  0.75564797  0.99529768  0.81783866     0.79900
N1349       N  0.75863995  0.00097633  0.86234128    -0.78400
C1350       C  0.73671213  0.00203182  0.88567837     0.82400
N1351       N  0.71181160  0.99768984  0.86372655    -0.78300
C1352       C  0.70855790  0.99188319  0.81910183     0.82500
N1353       N  0.73052277  0.99044764  0.79661660    -0.80000
C1354       C  0.97170606  0.72978416  0.28684610     0.79900
N1355       N  0.97464290  0.70850452  0.30866021    -0.78400
C1356       C  0.97378456  0.68524032  0.28635446     0.82400
N1357       N  0.97046909  0.68382291  0.24111629    -0.78300
C1358       C  0.96800590  0.70540890  0.21858982     0.82500
N1359       N  0.96845862  0.72822089  0.24181696    -0.80000
C1360       C  0.96330649  0.72584594  0.81472995     0.79900
N1361       N  0.95885848  0.72433448  0.85961529    -0.78400
C1362       C  0.95844645  0.70186469  0.88394108     0.82400
N1363       N  0.96232698  0.68077544  0.86277281    -0.78300
C1364       C  0.96710420  0.68228435  0.81796805     0.82500
N1365       N  0.96785633  0.70509402  0.79442575    -0.80000
O1366       O  0.92464338  0.50653843  0.50340894    -0.88500
C1367       C  0.57646861  0.56319313  0.61685979     1.11600
O1368       O  0.95517001  0.97962615  0.55071460    -1.36300
O1369       O  0.55624114  0.56783710  0.50271418    -0.90000
O1370       O  0.89516104  0.95783371  0.50304302    -0.90600
O1371       O  0.95366068  0.94857778  0.45517219    -0.79400
O1372       O  0.99098898  0.53649664  0.51226520    -1.01500
C1373       C  0.53842136  0.97409494  0.47272076     1.21600
O1374       O  0.98347647  0.94614020  0.54964018    -1.36400
Mn1375     Mn  0.98515593  0.97754014  0.59909408     1.82100
O1376       O  0.51634524  0.97590293  0.46022290    -0.78500
O1377       O  0.57876450  0.54073465  0.50197397    -0.87900
C1378       C  0.53781414  0.97217937  0.63655848     1.12700
C1379       C  0.57569509  0.56208605  0.48745649     1.07400
O1380       O  0.95376057  0.94658737  0.64421712    -0.79500
O1381       O  0.51907736  0.50794959  0.55378767    -1.33200
O1382       O  0.92517141  0.92053860  0.59174082    -0.98700
C1383       C  0.98002465  0.88951594  0.48335034     1.06100
Mn1384     Mn  0.56022823  0.50868852  0.55283600     1.48600
O1385       O  0.95543035  0.88637341  0.49709499    -0.87900
Mn1386     Mn  0.91207445  0.94125171  0.55112206     1.49600
O1387       O  0.92209860  0.00683894  0.60054454    -0.91700
C1388       C  0.99005773  0.53254166  0.47212887     1.19300
C1389       C  0.90147026  0.98232988  0.61650017     1.11400
Mn1390     Mn  0.98555956  0.97870671  0.50149685     1.81000
O1391       O  0.54156353  0.97206023  0.59643447    -0.96900
Mn1392     Mn  0.95747644  0.52026930  0.55373336     1.49300
C1393       C  0.90110378  0.98299767  0.48724432     1.07900
Mn1394     Mn  0.52145978  0.93913041  0.55382461     1.49900
C1395       C  0.97923777  0.88737669  0.61261406     1.10800
O1396       O  0.92578082  0.92238029  0.50809084    -1.02700
O1397       O  0.57982315  0.54199265  0.60224062    -0.92400
C1398       C  0.92984660  0.92621887  0.46800975     1.22100
O1399       O  0.54197394  0.97305704  0.51276850    -1.03100
O1400       O  0.55657760  0.56840913  0.60213964    -0.90500
O1401       O  0.50463104  0.90575239  0.60256639    -0.90100
O1402       O  0.89600904  0.95694012  0.60220566    -0.90100
Mn1403     Mn  0.52347996  0.55075192  0.55302166     1.47900
O1404       O  0.51580290  0.97403003  0.64944249    -0.78600
C1405       C  0.92985326  0.92437220  0.63173841     1.15100
O1406       O  0.98849093  0.50878339  0.45909136    -0.77300
O1407       O  0.98829540  0.50947250  0.64897955    -0.76900
Mn1408     Mn  0.94234062  0.90492139  0.54858023     1.51100
O1409       O  0.50502807  0.90667147  0.50372965    -0.89300
O1410       O  0.99116713  0.53786993  0.59584986    -0.96800
O1411       O  0.95502292  0.88436101  0.59729205    -0.91800
C1412       C  0.99032926  0.53346595  0.63605043     1.12900
C1413       C  0.47725359  0.56871709  0.78412203    -0.18100
C1414       C  0.47318154  0.58909608  0.80957137    -0.20300
C1415       C  0.96811582  0.61093942  0.78823455     0.20400
C1416       C  0.98250427  0.61910673  0.74636647    -0.03200
C1417       C  0.98610436  0.59816637  0.72089464    -0.06300
C1418       C  0.97526666  0.56887964  0.73707192     0.20600
C1419       C  0.99994414  0.60641388  0.67870481     0.18800
C1420       C  0.01080683  0.63554465  0.66277493    -0.17800
C1421       C  0.00724863  0.65616973  0.68793251    -0.20000
C1422       C  0.99278833  0.64807801  0.72934975     0.20300
C1423       C  0.98794796  0.66832580  0.75348495    -0.33000
C1424       C  0.97302059  0.66040800  0.79471771     0.01000
C1425       C  0.96365831  0.63175250  0.81242793    -0.24300
C1426       C  0.48376870  0.55105214  0.71134261    -0.28900
C1427       C  0.99056355  0.55577014  0.66738227     0.06700
C1428       C  0.00205774  0.58527651  0.65240136    -0.27600
H1429       H  0.47934755  0.55138992  0.80107763     0.11400
H1430       H  0.47228550  0.58709798  0.84558721     0.12500
H1431       H  0.02160270  0.64220046  0.63057488     0.11600
H1432       H  0.01544826  0.67844672  0.67454268     0.10800
H1433       H  0.99575307  0.69044525  0.73975582     0.16200
H1434       H  0.46738329  0.63209366  0.84997867     0.12100
H1435       H  0.48588676  0.53345527  0.72735067     0.15000
H1436       H  0.01218554  0.59168068  0.61966040     0.14800
C1437       C  0.02406757  0.83426311  0.68711617    -0.18100
C1438       C  0.02156095  0.81122136  0.71445042    -0.20300
C1439       C  0.99500339  0.79277520  0.73760237     0.20400
C1440       C  0.97081491  0.79778252  0.73355324    -0.03200
C1441       C  0.97320551  0.82079497  0.70530129    -0.06300
C1442       C  0.99998755  0.83908931  0.68199487     0.20600
C1443       C  0.94873908  0.82524137  0.69994907     0.18800
C1444       C  0.92233088  0.80707684  0.72374684    -0.17800
C1445       C  0.92012341  0.78457112  0.75226616    -0.20000
C1446       C  0.94415923  0.77959576  0.75729102     0.20300
C1447       C  0.94200621  0.75662339  0.78511843    -0.33000
C1448       C  0.96585319  0.75115664  0.78830022     0.01000
C1449       C  0.99218802  0.76925439  0.76437518    -0.24300
C1450       C  0.00207808  0.86150429  0.65332507    -0.28900
C1451       C  0.97755171  0.86558158  0.64659178     0.06700
C1452       C  0.95097201  0.84743740  0.67041999    -0.27600
H1453       H  0.04481400  0.84812295  0.66948323     0.11400
H1454       H  0.04035866  0.80776716  0.71737875     0.12500
H1455       H  0.90335936  0.81022388  0.72022125     0.11600
H1456       H  0.89945710  0.77085238  0.77013234     0.10800
H1457       H  0.92156709  0.74246475  0.80324547     0.16200
H1458       H  0.01055284  0.76504703  0.76685315     0.12100
H1459       H  0.02259383  0.87515208  0.63504178     0.15000
H1460       H  0.93195630  0.85041203  0.66573899     0.14800
C1461       C  0.99006768  0.62669201  0.45597934    -0.18100
C1462       C  0.98741492  0.64770299  0.43039067    -0.20300
C1463       C  0.98336757  0.64410333  0.38408897     0.20400
C1464       C  0.98192579  0.61903133  0.36319203    -0.03200
C1465       C  0.98453186  0.59764172  0.38914900    -0.06300
C1466       C  0.98864802  0.60165345  0.43563013     0.20600
C1467       C  0.47785121  0.56954266  0.37028796     0.18800
C1468       C  0.46836757  0.56368139  0.32562599    -0.17800
C1469       C  0.46657063  0.58532396  0.29982132    -0.20000
C1470       C  0.47415490  0.61321297  0.31824674     0.20300
C1471       C  0.47213276  0.63504620  0.29297207    -0.33000
C1472       C  0.97664490  0.66206084  0.31196563     0.01000
C1473       C  0.98072291  0.66521750  0.35852688    -0.24300
C1474       C  0.99107039  0.58053484  0.46138674    -0.28900
C1475       C  0.98916448  0.55490478  0.44190446     0.06700
C1476       C  0.47952749  0.54795432  0.39683411    -0.27600
H1477       H  0.99315377  0.62997404  0.49167162     0.10500
H1478       H  0.98853875  0.66686702  0.44693887     0.12500
H1479       H  0.46225573  0.54231188  0.31065779     0.11600
H1480       H  0.45913420  0.58020282  0.26552069     0.10800
H1481       H  0.46456238  0.63032794  0.25866244     0.16200
H1482       H  0.98187774  0.68430628  0.37533299     0.12100
H1483       H  0.99409487  0.58400790  0.49710338     0.15000
H1484       H  0.47319294  0.52622774  0.38300204     0.14800
C1485       C  0.92683855  0.78903771  0.33946359    -0.18100
C1486       C  0.92793598  0.81145830  0.36699787    -0.20300
C1487       C  0.95320543  0.82928539  0.39331462     0.20400
C1488       C  0.97770163  0.82460675  0.39139720    -0.03200
C1489       C  0.97636118  0.80162020  0.36434005    -0.06300
C1490       C  0.95084707  0.78378880  0.33808164     0.20600
C1491       C  0.00042356  0.79621562  0.36412661     0.18800
C1492       C  0.52598607  0.81088973  0.39741014    -0.17800
C1493       C  0.52685364  0.83303145  0.42501171    -0.20000
C1494       C  0.00338402  0.84252335  0.41715520     0.20300
C1495       C  0.00436637  0.86471380  0.44492635    -0.33000
C1496       C  0.97963601  0.86875456  0.44877625     0.01000
C1497       C  0.95420532  0.85118628  0.42229703    -0.24300
C1498       C  0.94973733  0.76084726  0.31145984    -0.28900
C1499       C  0.97339761  0.75500963  0.31213289     0.06700
C1500       C  0.99852721  0.77266515  0.33862118    -0.27600
H1501       H  0.90705213  0.77557020  0.31964496     0.11400
H1502       H  0.90893771  0.81475578  0.36787419     0.12500
H1503       H  0.54421107  0.80636661  0.39884361     0.11600
H1504       H  0.54568281  0.84518497  0.44712317     0.10800
H1505       H  0.02401118  0.87793311  0.46519289     0.16200
H1506       H  0.93508038  0.85420670  0.42478450     0.12100
H1507       H  0.93020199  0.74697924  0.29131901     0.15000
H1508       H  0.51804832  0.76636365  0.34373123     0.14800
C1509       C  0.44765536  0.64854315  0.03042418    -0.18100
C1510       C  0.44871358  0.64901332  0.07715272    -0.20300
C1511       C  0.45568609  0.67516678  0.10067851     0.20400
C1512       C  0.96099259  0.70339072  0.07495565    -0.03200
C1513       C  0.95893541  0.70277791  0.02782206    -0.06300
C1514       C  0.45357497  0.67423907  0.00642556     0.20600
C1515       C  0.96720018  0.72931091  0.00392774     0.18800
C1516       C  0.97737063  0.75617920  0.02738773    -0.17800
C1517       C  0.97938476  0.75678647  0.07404796    -0.20000
C1518       C  0.97124328  0.73051862  0.09814437     0.20300
C1519       C  0.97327360  0.73092942  0.14496273    -0.33000
C1520       C  0.96552115  0.70461751  0.16906226     0.01000
C1521       C  0.45737437  0.67608794  0.14750412    -0.24300
C1522       C  0.45320612  0.67423814  0.95952846    -0.28900
C1523       C  0.95667434  0.70182951  0.93352035     0.06700
C1524       C  0.96573654  0.72861027  0.95702222    -0.27600
H1525       H  0.44238838  0.62814533  0.01305100     0.11400
H1526       H  0.44423063  0.62894136  0.09490145     0.12500
H1527       H  0.98393525  0.77680024  0.00961244     0.11600
H1528       H  0.98738694  0.77783047  0.09129105     0.10800
H1529       H  0.98125358  0.75185497  0.16259079     0.16200
H1530       H  0.45324947  0.65629401  0.16576384     0.12100
H1531       H  0.44829050  0.65410242  0.94162079     0.15000
H1532       H  0.97270820  0.74916604  0.93878350     0.14800
C1533       C  0.80666377  0.93396156  0.69988681    -0.18100
C1534       C  0.78579591  0.93598113  0.72683509    -0.20300
C1535       C  0.79278971  0.96326814  0.74674338     0.20400
C1536       C  0.82125177  0.98859330  0.74016956    -0.03200
C1537       C  0.84210113  0.98664362  0.71222992    -0.06300
C1538       C  0.83465156  0.95919400  0.69181961     0.20600
C1539       C  0.87001133  0.01227567  0.70376520     0.18800
C1540       C  0.88352630  0.54174828  0.73160387    -0.17800
C1541       C  0.86363117  0.54451741  0.76008620    -0.20000
C1542       C  0.82863071  0.01602259  0.76064323     0.20300
C1543       C  0.80742629  0.01787317  0.78751662    -0.33000
C1544       C  0.77875834  0.99292712  0.79280595     0.01000
C1545       C  0.77157461  0.96571696  0.77248088    -0.24300
C1546       C  0.85488640  0.95769451  0.66255224    -0.28900
C1547       C  0.88216807  0.98342055  0.65212327     0.06700
C1548       C  0.88980565  0.01057241  0.67359834    -0.27600
H1549       H  0.80060367  0.91265499  0.68451426     0.11400
H1550       H  0.76417661  0.91635801  0.73179745     0.12500
H1551       H  0.90605797  0.56038481  0.72831487     0.11600
H1552       H  0.87127689  0.56521781  0.77818016     0.10800
H1553       H  0.82051038  0.54416385  0.81059189     0.16200
H1554       H  0.74949239  0.94654535  0.77675958     0.12100
H1555       H  0.84872120  0.93662870  0.64631217     0.15000
H1556       H  0.91077694  0.03050094  0.66608617     0.14800
C1557       C  0.64501370  0.95691043  0.68454595    -0.18100
C1558       C  0.62086524  0.95364459  0.65948891    -0.20300
C1559       C  0.60177888  0.96291909  0.67688840     0.20400
C1560       C  0.60662185  0.97497411  0.72029259    -0.03200
C1561       C  0.63108291  0.97824475  0.74567714    -0.06300
C1562       C  0.65049898  0.96944958  0.72740992     0.20600
C1563       C  0.63641545  0.99076249  0.78887049     0.18800
C1564       C  0.61691970  0.99952937  0.80643659    -0.17800
C1565       C  0.59271848  0.99637114  0.78120070    -0.20000
C1566       C  0.58744248  0.98433007  0.73791665     0.20300
C1567       C  0.56392480  0.98219415  0.71147492    -0.33000
C1568       C  0.55972112  0.97118559  0.66749002     0.01000
C1569       C  0.57844759  0.96104671  0.65099201    -0.24300
C1570       C  0.67531669  0.97371660  0.75193477    -0.28900
C1571       C  0.68125801  0.98659032  0.79479350     0.06700
C1572       C  0.66137025  0.99469851  0.81332962    -0.27600
H1573       H  0.65965792  0.94991586  0.67009318     0.11400
H1574       H  0.61735865  0.94427209  0.62626659     0.12500
H1575       H  0.62058440  0.00915535  0.83951176     0.11600
H1576       H  0.57830005  0.00370326  0.79540586     0.10800
H1577       H  0.54971690  0.99017375  0.72441696     0.16200
H1578       H  0.57528451  0.95227581  0.61735398     0.12100
H1579       H  0.69016722  0.96704396  0.73731684     0.15000
H1580       H  0.66562676  0.00462827  0.84627025     0.14800
C1581       C  0.85784491  0.03018995  0.33033204    -0.18100
C1582       C  0.87863202  0.02910607  0.35893549    -0.20300
C1583       C  0.86934302  0.00682477  0.39175183     0.20400
C1584       C  0.83876917  0.98518282  0.39538067    -0.03200
C1585       C  0.81773916  0.98665709  0.36721672    -0.06300
C1586       C  0.82731269  0.00924554  0.33447049     0.20600
C1587       C  0.78707403  0.96582856  0.37242316     0.18800
C1588       C  0.77780097  0.94317938  0.40454674    -0.17800
C1589       C  0.79864296  0.94131308  0.43177262    -0.20000
C1590       C  0.82910781  0.96237587  0.42770501     0.20300
C1591       C  0.84994932  0.96132823  0.45613983    -0.33000
C1592       C  0.88030325  0.98334005  0.45384249     0.01000
C1593       C  0.88990081  0.00600981  0.42146590    -0.24300
C1594       C  0.80612903  0.01084664  0.30714069    -0.28900
C1595       C  0.77551762  0.99080944  0.31342172     0.06700
C1596       C  0.76621765  0.96832770  0.34593398    -0.27600
H1597       H  0.86558640  0.04767323  0.30546330     0.11400
H1598       H  0.90203615  0.04584499  0.35550042     0.12500
H1599       H  0.75431806  0.92692495  0.40881070     0.11600
H1600       H  0.79092757  0.92372365  0.45644735     0.10800
H1601       H  0.84235329  0.94399149  0.48130000     0.16200
H1602       H  0.91331693  0.02297148  0.41945866     0.12100
H1603       H  0.81331573  0.02831711  0.28227411     0.15000
H1604       H  0.74259847  0.95270330  0.35057349     0.14800
C1605       C  0.59392165  0.00160963  0.32851161    -0.18100
C1606       C  0.61775754  0.00452318  0.30259281    -0.20300
C1607       C  0.63647500  0.99432613  0.31869267     0.20400
C1608       C  0.63085751  0.98087061  0.36128106    -0.03200
C1609       C  0.60685258  0.97793620  0.38738870    -0.06300
C1610       C  0.58830268  0.98845717  0.37108865     0.20600
C1611       C  0.60174417  0.96485547  0.43013224     0.18800
C1612       C  0.62018600  0.95442232  0.44626545    -0.17800
C1613       C  0.64383508  0.95729981  0.42046826    -0.20000
C1614       C  0.64946526  0.97063805  0.37817035     0.20300
C1615       C  0.67363538  0.97421169  0.35284298    -0.33000
C1616       C  0.67988083  0.98793240  0.31057593     0.01000
C1617       C  0.66089827  0.99765072  0.29340360    -0.24300
C1618       C  0.56497154  0.98617519  0.39808729    -0.28900
C1619       C  0.56042273  0.97390011  0.44132739     0.06700
C1620       C  0.57868567  0.96291875  0.45660437    -0.27600
H1621       H  0.58004954  0.00994241  0.31540219     0.11400
H1622       H  0.62168788  0.01497806  0.27007819     0.12500
H1623       H  0.61648430  0.94431090  0.47899139     0.11600
H1624       H  0.65794410  0.94928467  0.43385934     0.10800
H1625       H  0.68778805  0.96631366  0.36645271     0.16200
H1626       H  0.66545841  0.00830528  0.26095768     0.12100
H1627       H  0.55113578  0.99488041  0.38617974     0.15000
H1628       H  0.57524454  0.95322273  0.48966509     0.14800
C1629       C  0.70076257  0.02043238  0.02863448    -0.18100
C1630       C  0.70065013  0.02066328  0.07534714    -0.20300
C1631       C  0.72020410  0.01472453  0.09958588     0.20400
C1632       C  0.74065971  0.00930836  0.07643824    -0.03200
C1633       C  0.74077852  0.00908062  0.02923166    -0.06300
C1634       C  0.72044668  0.01428124  0.00525659     0.20600
C1635       C  0.76076822  0.00300478  0.00609499     0.18800
C1636       C  0.78079140  0.99771717  0.03031947    -0.17800
C1637       C  0.78067469  0.99794187  0.07704637    -0.20000
C1638       C  0.76051674  0.00343960  0.10040916     0.20300
C1639       C  0.75935865  0.00240910  0.14724340    -0.33000
C1640       C  0.73828272  0.00670785  0.17066622     0.01000
C1641       C  0.71913596  0.01337337  0.14645358    -0.24300
C1642       C  0.71971153  0.01263679  0.95842575    -0.28900
C1643       C  0.73911677  0.00596844  0.93501326     0.06700
C1644       C  0.75994557  0.00168954  0.95923324    -0.27600
H1645       H  0.68511844  0.02465232  0.01075600     0.11400
H1646       H  0.68491129  0.02504004  0.09255356     0.12500
H1647       H  0.79631982  0.99304182  0.01310830     0.11600
H1648       H  0.79610203  0.99341881  0.09493356     0.10800
H1649       H  0.77428217  0.99724999  0.16533378     0.16200
H1650       H  0.70298269  0.01698008  0.16401596     0.12100
H1651       H  0.70371490  0.01619257  0.94023462     0.15000
H1652       H  0.77499238  0.99645063  0.94172704     0.14800
C1653       C  0.90354346  0.86762737  0.77373784    -0.18100
C1654       C  0.88266030  0.84384295  0.79993208    -0.20300
C1655       C  0.85289689  0.82656401  0.78589021     0.20400
C1656       C  0.84398611  0.83379662  0.74552069    -0.03200
C1657       C  0.86503981  0.85775553  0.71909527    -0.06300
C1658       C  0.89506022  0.87457891  0.73301949     0.20600
C1659       C  0.85618435  0.86429154  0.67811654     0.18800
C1660       C  0.82630585  0.84764419  0.66461030    -0.17800
C1661       C  0.80548149  0.82399393  0.69079792    -0.20000
C1662       C  0.81419942  0.81659063  0.73087302     0.20300
C1663       C  0.79379142  0.79179826  0.75586844    -0.33000
C1664       C  0.80258728  0.78377692  0.79547715     0.01000
C1665       C  0.83208504  0.80172525  0.81081786    -0.24300
C1666       C  0.91614456  0.89740347  0.70533923    -0.28900
C1667       C  0.90758107  0.90302846  0.66358500     0.06700
C1668       C  0.87748577  0.88675238  0.65065763    -0.27600
H1669       H  0.92646116  0.88026984  0.78498985     0.11400
H1670       H  0.88990681  0.83866043  0.83084755     0.12500
H1671       H  0.81915596  0.85256332  0.63337898     0.11600
H1672       H  0.78263959  0.81111525  0.67925488     0.10800
H1673       H  0.77106987  0.77843209  0.74398379     0.16200
H1674       H  0.83911754  0.79582270  0.84131650     0.12100
H1675       H  0.93935026  0.90984636  0.71533190     0.15000
H1676       H  0.87072785  0.89124392  0.61870381     0.14800
C1677       C  0.67278444  0.60548991  0.76547070    -0.18100
C1678       C  0.65069549  0.58517551  0.73647806    -0.20300
C1679       C  0.63458628  0.59416803  0.70937334     0.20400
C1680       C  0.64043775  0.62384497  0.71212319    -0.03200
C1681       C  0.66309869  0.64450056  0.74080562    -0.06300
C1682       C  0.67940397  0.63528524  0.76753691     0.20600
C1683       C  0.66992723  0.67452231  0.74186760     0.18800
C1684       C  0.65327507  0.68333915  0.71570160    -0.17800
C1685       C  0.63046055  0.66275483  0.68793981    -0.20000
C1686       C  0.62416316  0.63308031  0.68544148     0.20300
C1687       C  0.60243914  0.61272944  0.65584123    -0.33000
C1688       C  0.59728562  0.58342288  0.65155705     0.01000
C1689       C  0.61323877  0.57424780  0.67889020    -0.24300
C1690       C  0.70256095  0.65619407  0.79490305    -0.28900
C1691       C  0.71028350  0.68636201  0.79453264     0.06700
C1692       C  0.69373285  0.69531770  0.76824225    -0.27600
H1693       H  0.68506415  0.59803346  0.78569348     0.11400
H1694       H  0.64640065  0.56242311  0.73495268     0.12500
H1695       H  0.65809899  0.70625702  0.71634592     0.11600
H1696       H  0.61814240  0.67019021  0.66776829     0.10800
H1697       H  0.59037908  0.62008216  0.63485416     0.16200
H1698       H  0.60923926  0.55164219  0.67614402     0.12100
H1699       H  0.71546251  0.64932928  0.81487446     0.15000
H1700       H  0.69959003  0.71857055  0.76812361     0.14800
C1701       C  0.81218211  0.81155975  0.42338080    -0.18100
C1702       C  0.83208453  0.83655797  0.44807421    -0.20300
C1703       C  0.85935800  0.85796883  0.42948624     0.20400
C1704       C  0.86670712  0.85437450  0.38554702    -0.03200
C1705       C  0.84644912  0.82914915  0.36042638    -0.06300
C1706       C  0.81915210  0.80769424  0.37960613     0.20600
C1707       C  0.85350535  0.82533203  0.31634982     0.18800
C1708       C  0.88099190  0.84678250  0.29804440    -0.17800
C1709       C  0.90124041  0.87170340  0.32315052    -0.20000
C1710       C  0.89434826  0.87576198  0.36697805     0.20300
C1711       C  0.91474965  0.90032741  0.39299694    -0.33000
C1712       C  0.90768862  0.90345753  0.43728989     0.01000
C1713       C  0.87964890  0.88250432  0.45467732    -0.24300
C1714       C  0.79912833  0.78271594  0.35479934    -0.28900
C1715       C  0.80557215  0.77868841  0.31059898     0.06700
C1716       C  0.83293422  0.80017045  0.29153623    -0.27600
H1717       H  0.79129730  0.79523651  0.43853331     0.11400
H1718       H  0.82624384  0.83901790  0.48188778     0.12500
H1719       H  0.88688775  0.84423163  0.26432616     0.11600
H1720       H  0.92235146  0.88776136  0.30830393     0.10800
H1721       H  0.93638444  0.91626200  0.37945649     0.16200
H1722       H  0.87387769  0.88477878  0.48865716     0.12100
H1723       H  0.77821613  0.76651451  0.37004103     0.15000
H1724       H  0.83827267  0.79727130  0.25762924     0.14800
C1725       C  0.66034573  0.68310980  0.39656536    -0.18100
C1726       C  0.63704206  0.66300108  0.42396668    -0.20300
C1727       C  0.62767124  0.63245250  0.42305934     0.20400
C1728       C  0.64171196  0.62199503  0.39383119    -0.03200
C1729       C  0.66488609  0.64225881  0.36543655    -0.06300
C1730       C  0.67441163  0.67297974  0.36729504     0.20600
C1731       C  0.67881161  0.63188245  0.33575989     0.18800
C1732       C  0.66957025  0.60131896  0.33524671    -0.17800
C1733       C  0.64702678  0.58133097  0.36406963    -0.20000
C1734       C  0.63297801  0.59143368  0.39354871     0.20300
C1735       C  0.61082484  0.57170755  0.42338252    -0.33000
C1736       C  0.59682051  0.58204189  0.45280656     0.01000
C1737       C  0.60501794  0.61236149  0.45169381    -0.24300
C1738       C  0.69810637  0.69313213  0.34033760    -0.28900
C1739       C  0.71204333  0.68308202  0.31055065     0.06700
C1740       C  0.70204105  0.65235633  0.30785787    -0.27600
H1741       H  0.66741349  0.70664125  0.39833473     0.11400
H1742       H  0.62660061  0.67141324  0.44633638     0.12500
H1743       H  0.68003788  0.59290587  0.31292590     0.11600
H1744       H  0.64067477  0.55796649  0.36344967     0.10800
H1745       H  0.60469106  0.54839060  0.42404583     0.16200
H1746       H  0.59468079  0.62061020  0.47460107     0.12100
H1747       H  0.70581418  0.71681944  0.34250404     0.15000
H1748       H  0.71305609  0.64461166  0.28538830     0.14800
C1749       C  0.72927845  0.67056015  0.02690190    -0.18100
C1750       C  0.72836603  0.67089958  0.07364775    -0.20300
C1751       C  0.74852134  0.69651006  0.09762628     0.20400
C1752       C  0.77039065  0.72169436  0.07422635    -0.03200
C1753       C  0.77140145  0.72130230  0.02705240    -0.06300
C1754       C  0.75037193  0.69583412  0.00323052     0.20600
C1755       C  0.79286289  0.74676518  0.00373797     0.18800
C1756       C  0.81358311  0.77205975  0.02767556    -0.17800
C1757       C  0.81249792  0.77249608  0.07429422    -0.20000
C1758       C  0.79080996  0.74756251  0.09784939     0.20300
C1759       C  0.78898343  0.74826044  0.14453941    -0.33000
C1760       C  0.76697764  0.72344225  0.16833654     0.01000
C1761       C  0.74692924  0.69754194  0.14444971    -0.24300
C1762       C  0.74998469  0.69657836  0.95627020    -0.28900
C1763       C  0.77027925  0.72257546  0.93279700     0.06700
C1764       C  0.79242417  0.74706703  0.95693277    -0.27600
H1765       H  0.71307356  0.65072620  0.00922896     0.11400
H1766       H  0.71154646  0.65126114  0.09102731     0.12500
H1767       H  0.83024856  0.79179151  0.01028223     0.11600
H1768       H  0.82842187  0.79250468  0.09192825     0.10800
H1769       H  0.80455228  0.76840778  0.16224856     0.16200
H1770       H  0.72990914  0.67822278  0.16219722     0.12100
H1771       H  0.73305382  0.67738764  0.93819558     0.15000
H1772       H  0.80843489  0.76714180  0.93948580     0.14800
loop_ 
_geom_bond_atom_site_label_1 
_geom_bond_atom_site_label_2 
_geom_bond_distance 
_geom_bond_site_symmetry_2 
_ccdc_geom_bond_type 
C1            N2   1.353       .  A
C1            N6   1.357       .  A
C1          C410   1.481       .  S
N2            C3   1.356       .  A
C3            N4   1.363       .  A
C3          C386   1.492       .  S
N4            C5   1.368       .  A
C5            N6   1.364       .  A
C5          C431   1.490       .  S
C7            N8   1.356       .  A
C7           N12   1.357       .  A
C7          C362   1.473       .  S
N8            C9   1.359       .  A
C9           N10   1.361       .  A
C9          C335   1.490       .  S
N10          C11   1.365       .  A
C11          N12   1.362       .  A
C11         C434   1.487       .  S
C13          N14   1.358       .  A
C13          N18   1.358       .  A
C13         C266   1.483       .  S
N14          C15   1.363       .  A
C15          N16   1.365       .  A
C15         C311   1.489       .  S
N16          C17   1.362       .  A
C17          N18   1.361       .  A
C17         C287   1.491       .  S
C19          N20   1.356       .  A
C19          N24   1.359       .  A
C19         C215   1.481       .  S
N20          C21   1.362       .  A
C21          N22   1.365       .  A
C21         C314   1.489       .  S
N22          C23   1.363       .  A
C23          N24   1.364       .  A
C23         C242   1.497       .  S
C25          N26   1.358       .  A
C25          N30   1.358       .  A
C25         C170   1.477       .  S
N26          C27   1.361       .  A
C27          N28   1.360       .  A
C27         C143   1.486       .  S
N28          C29   1.361       .  A
C29          N30   1.363       .  A
C29         C191   1.486       .  S
C31          N32   1.359       .  A
C31          N36   1.357       .  A
C31         C119   1.483       .  S
N32          C33   1.366       .  A
C33          N34   1.365       .  A
C33         C194   1.490       .  S
N34          C35   1.361       .  A
C35          N36   1.357       .  A
C35          C95   1.488       .  S
O37         Mn63   2.095       .  S
O37         C507   1.273   1_545  A
C38         C359   1.481       .  S
C38          O71   1.272       .  A
C38          O68   1.273       .  A
O39         Mn46   2.188       .  S
O39         Mn57   2.112       .  S
O39         Mn61   2.177       .  S
O39        Mn506   2.120       .  S
O40         Mn74   2.089       .  S
O40          C50   1.271       .  A
O41         Mn57   2.095       .  S
O41          C64   1.273       .  A
O42         Mn61   2.115       .  S
O42          C69   1.254       .  A
O43         Mn63   1.964       .  S
O43        Mn960   1.958       .  S
O43          C59   1.218       .  S
C44         C290   1.484       .  S
C44          O47   1.256       .  A
C44          O70   1.220       .  S
O45         Mn46   2.174       .  S
O45         Mn79   2.125       .  S
O45         Mn61   2.173       .  S
O45        Mn951   2.114       .  S
Mn46         O51   2.128       .  S
Mn46        O961   2.137       .  S
Mn46        O521   2.125       .  S
Mn46       O1381   2.179       .  S
O47        Mn947   2.117   1_455  S
O48         Mn55   2.107       .  S
O48          C50   1.274       .  A
C49         C239   1.493       .  S
C49          O75   1.256       .  A
C49          O62   1.217       .  S
C50         C407   1.479       .  S
O51          C76   1.255       .  A
O52         Mn55   2.124       .  S
O52         Mn74   2.115       .  S
O52       Mn1375   2.167   1_445  S
O52       Mn1390   2.174   1_445  S
O53         Mn57   1.951       .  S
O53         Mn79   1.954       .  S
O53          C76   1.217       .  S
C54         C167   1.491       .  S
C54          O56   1.275       .  A
C54         O966   1.273       .  A
Mn55         O68   2.098       .  S
Mn55        O513   1.955   1_545  S
Mn55        O505   1.965   1_545  S
O56         Mn79   2.110       .  S
Mn57         O73   2.104       .  S
Mn57         O67   1.968       .  S
O58        Mn506   2.108       .  S
O58          C60   1.273       .  A
C59         C146   1.478       .  S
C59          O77   1.254       .  A
C60         C218   1.492       .  S
C60          O73   1.275       .  A
Mn61        O933   2.118       .  S
Mn61        O520   2.120       .  S
Mn61       O1381   2.176       .  S
O62         Mn65   1.959       .  S
O62        Mn498   1.951       .  S
Mn63        O501   2.108       .  S
Mn63        O482   2.125   1_545  S
Mn63         O81   1.953       .  S
C64         C263   1.488       .  S
C64         O480   1.274       .  A
Mn65         O72   2.102       .  S
Mn65         O80   2.079       .  S
Mn65        O931   2.114   1_455  S
Mn65         O70   1.960       .  S
C66         C122   1.480       .  S
C66          O82   1.271       .  A
C66         O958   1.274       .  A
O67         Mn79   1.960       .  S
O67          C69   1.219       .  S
C69         C383   1.484       .  S
O70        Mn498   1.958       .  S
O71         Mn74   2.088       .  S
O72         C952   1.274   1_455  A
Mn74        O929   1.955   1_455  S
Mn74        O967   1.962   1_455  S
O75        Mn932   2.140   1_455  S
C76         C338   1.484       .  S
O77        Mn504   2.111   1_545  S
O78        Mn489   2.131   1_545  S
O78          C83   1.256       .  A
Mn79         O82   2.098       .  S
O80         C940   1.270   1_455  A
O81        Mn960   1.959       .  S
O81          C83   1.216       .  S
C83          C98   1.485       .  S
C84          C85   1.405       .  A
C84         C975   1.406       .  A
C84         H100   1.085       .  S
C85         C972   1.406       .  A
C85         H101   1.082       .  S
C86          C96   1.411       .  A
C86          C87   1.412       .  A
C86         C971   1.406       .  A
C87          C93   1.412       .  A
C87          C88   1.415       .  A
C88          C90   1.409       .  A
C88          C89   1.414       .  A
C89         C970   1.405       .  A
C89         C983   1.412       .  A
C90          C99   1.401       .  A
C90          C91   1.404       .  A
C91          C92   1.397       .  A
C91         H102   1.080       .  S
C92          C93   1.402       .  A
C92         H103   1.087       .  S
C93          C94   1.401       .  A
C94          C95   1.407       .  A
C94         H104   1.086       .  S
C95          C96   1.410       .  A
C96         H991   1.083       .  S
C97         C975   1.411       .  A
C97         C984   1.408       .  A
C97         H106   1.085       .  S
C98          C99   1.409       .  A
C98         C983   1.408       .  A
C99         H107   1.082       .  S
H105        C982   1.083       .  S
C108        C109   1.396       .  A
C108        C113   1.401       .  A
C108        H124   1.085       .  S
C109        C110   1.403       .  A
C109        H125   1.082       .  S
C110        C120   1.399       .  A
C110        C111   1.410       .  A
C111        C117   1.413       .  A
C111        C112   1.414       .  A
C112        C114   1.412       .  A
C112        C113   1.412       .  A
C113        C121   1.400       .  A
C114        C123   1.411       .  A
C114        C115   1.406       .  A
C115        C116   1.404       .  A
C115        H126   1.081       .  S
C116        C117   1.406       .  A
C116        H127   1.084       .  S
C117        C118   1.412       .  A
C118        C119   1.410       .  A
C118        H128   1.084       .  S
C119        C120   1.405       .  A
C120        H129   1.084       .  S
C121        C122   1.403       .  A
C121        H130   1.086       .  S
C122        C123   1.410       .  A
C123        H131   1.083       .  S
C132        C133   1.396       .  A
C132        C137   1.403       .  A
C132        H148   1.081       .  S
C133        C134   1.402       .  A
C133        H149   1.086       .  S
C134        C144   1.401       .  A
C134        C135   1.412       .  A
C135        C136   1.412       .  A
C135       C1027   1.411       .  A
C136        C137   1.409       .  A
C136       C1024   1.413       .  A
C137        C145   1.398       .  A
C138        C147   1.413       .  A
C138        C139   1.405       .  A
C138       C1022   1.414       .  A
C139        C140   1.404       .  A
C139        H150   1.084       .  S
C140        C141   1.406       .  A
C140        H151   1.083       .  S
C141        C142   1.409       .  A
C141       C1021   1.410       .  A
C142       C1029   1.412       .  A
C142        H152   1.083       .  S
C143        C144   1.406       .  A
C143       C1028   1.410       .  A
C144        H153   1.086       .  S
C145        C146   1.407       .  A
C145        H154   1.083       .  S
C146       C1033   1.406       .  A
C147       C1032   1.408       .  A
C147        H155   1.084       .  S
C156        C157   1.404       .  A
C156        C161   1.406       .  A
C156        H172   1.082       .  S
C157        C158   1.405       .  A
C157        H173   1.085       .  S
C158        C168   1.410       .  A
C158        C159   1.413       .  A
C159        C165   1.410       .  A
C159        C160   1.415       .  A
C160        C162   1.413       .  A
C160        C161   1.412       .  A
C161        C169   1.410       .  A
C162        C171   1.403       .  A
C162       C1049   1.402       .  A
C163        C164   1.397       .  A
C163       C1048   1.402       .  A
C163        H174   1.086       .  S
C164       C1051   1.404       .  A
C164        H175   1.081       .  S
C165        C166   1.402       .  A
C165       C1050   1.404       .  A
C166        C167   1.409       .  A
C166        H176   1.083       .  S
C167        C168   1.411       .  A
C168        H177   1.085       .  S
C169        C170   1.408       .  A
C169        H178   1.084       .  S
C170        C171   1.402       .  A
C171       H1065   1.086       .  S
H179       C1057   1.087   1_455  S
C180        C181   1.399       .  A
C180        C185   1.404       .  A
C180        H196   1.083       .  S
C181        C182   1.403       .  A
C181        H197   1.084       .  S
C182        C192   1.403       .  A
C182       C1069   1.412       .  A
C183        C189   1.411       .  A
C183        C184   1.414       .  A
C183       C1068   1.412       .  A
C184        C186   1.411       .  A
C184       C1071   1.411       .  A
C185        C193   1.405   1_554  A
C185       C1070   1.411       .  A
C186        C195   1.403   1_554  A
C186        C187   1.403       .  A
C187        C188   1.398       .  A
C187        H198   1.085       .  S
C188        C189   1.403       .  A
C188        H199   1.083       .  S
C189        C190   1.402       .  A
C190        C191   1.407       .  A
C190        H200   1.084       .  S
C191       C1078   1.410       .  A
C192       C1077   1.407       .  A
C192        H201   1.085       .  S
C193       C1080   1.409       .  A
C193        H202   1.084       .  S
C194        C195   1.409       .  A
C194       C1079   1.411       .  A
C195        H203   1.085       .  S
C204        C205   1.398       .  A
C204        C209   1.402       .  A
C204        H220   1.086       .  S
C205        C206   1.404       .  A
C205        H221   1.082       .  S
C206        C216   1.405       .  A
C206        C207   1.412       .  A
C207        C213   1.412       .  A
C207        C208   1.416       .  A
C208        C210   1.413       .  A
C208        C209   1.412       .  A
C209        C217   1.402       .  A
C210        C219   1.412       .  A
C210        C654   1.406       .  A
C211        C212   1.402       .  A
C211        C653   1.406       .  A
C211        H222   1.082       .  S
C212        C656   1.405       .  A
C212        H223   1.085       .  S
C213        C214   1.412       .  A
C213        C655   1.407       .  A
C214        C215   1.409       .  A
C214        H667   1.083       .  S
C215        C216   1.404       .  A
C216        H225   1.083       .  S
C217        C218   1.407       .  A
C217        H226   1.086       .  S
C218        C219   1.413       .  A
C219        H227   1.085       .  S
H224        C657   1.084       .  S
C228        C229   1.395       .  A
C228        C233   1.401       .  A
C228        H244   1.085       .  S
C229        C230   1.403       .  A
C229        H245   1.083       .  S
C230        C240   1.397       .  A
C230        C231   1.408       .  A
C231        C237   1.414       .  A
C231        C232   1.417       .  A
C232        C234   1.410       .  A
C232        C233   1.412       .  A
C233        C241   1.400       .  A
C234        C243   1.415       .  A
C234        C235   1.407       .  A
C235        C236   1.407       .  A
C235        H246   1.083       .  S
C236        C237   1.406       .  A
C236        H247   1.084       .  S
C237        C238   1.417       .  A
C238        C239   1.412       .  A
C238        H248   1.084       .  S
C239        C240   1.409       .  A
C240        H249   1.084       .  S
C241        C242   1.408       .  A
C241        H250   1.085       .  S
C242        C243   1.415       .  A
C243        H251   1.083       .  S
C252        C253   1.403       .  A
C252        C257   1.406       .  A
C252        H268   1.083       .  S
C253        C254   1.405       .  A
C253        H269   1.085       .  S
C254        C264   1.411       .  A
C254        C255   1.413       .  A
C255        C261   1.410       .  A
C255        C256   1.416       .  A
C256        C258   1.413       .  A
C256        C257   1.412       .  A
C257        C265   1.410       .  A
C258        C267   1.403       .  A
C258        C259   1.402       .  A
C259        C260   1.398       .  A
C259        H270   1.085       .  S
C260        C261   1.404       .  A
C260        H271   1.082       .  S
C261        C262   1.403       .  A
C262        C263   1.408       .  A
C262        H272   1.083       .  S
C263        C264   1.410       .  A
C264        H273   1.084       .  S
C265        C266   1.409       .  A
C265        H274   1.084       .  S
C266        C267   1.405       .  A
C267        H275   1.086       .  S
C276        C277   1.404       .  A
C276        C281   1.405       .  A
C276        H292   1.084       .  S
C277        C278   1.406       .  A
C277        H293   1.083       .  S
C278        C288   1.411       .  A
C278        C279   1.412       .  A
C279        C285   1.411       .  A
C279        C280   1.415       .  A
C280        C282   1.410       .  A
C280        C281   1.413       .  A
C281        C289   1.411       .  A
C282        C291   1.400       .  A
C282        C283   1.403       .  A
C283        C284   1.397       .  A
C283        H294   1.082       .  S
C284        C285   1.402       .  A
C284        H295   1.086       .  S
C285        C286   1.400       .  A
C286        C287   1.407       .  A
C286        H296   1.086       .  S
C287        C288   1.412       .  A
C288        H297   1.083       .  S
C289        C290   1.408       .  A
C289        H298   1.084       .  S
C290        C291   1.407       .  A
C291        H299   1.083       .  S
C300        C301   1.402       .  A
C300        C305   1.404       .  A
C300        H316   1.084       .  S
C301        C302   1.405       .  A
C301        H317   1.084       .  S
C302        C312   1.408       .  A
C302        C303   1.411       .  A
C303        C309   1.411       .  A
C303        C304   1.414       .  A
C304        C306   1.410       .  A
C304        C305   1.412       .  A
C305        C313   1.408   1_554  A
C306        C315   1.402   1_554  A
C306        C307   1.403       .  A
C307        C308   1.398       .  A
C307        H318   1.084       .  S
C308        C309   1.403       .  A
C308        H319   1.084       .  S
C309        C310   1.403       .  A
C310        C311   1.409       .  A
C310        H320   1.085       .  S
C311        C312   1.410       .  A
C312        H321   1.084       .  S
C313        C314   1.409       .  A
C313        H322   1.084       .  S
C314        C315   1.409       .  A
C315        H323   1.085       .  S
C324        C325   1.404       .  A
C324        C329   1.405       .  A
C324        H340   1.083       .  S
C325        C326   1.406       .  A
C325        H341   1.083       .  S
C326        C336   1.411       .  A
C326        C327   1.411       .  A
C327        C333   1.411       .  A
C327        C328   1.414       .  A
C328        C330   1.409       .  A
C328        C329   1.414       .  A
C329        C337   1.413       .  A
C330        C339   1.396       .  A
C330        C331   1.402       .  A
C331        C332   1.395       .  A
C331        H342   1.084       .  S
C332        C333   1.402       .  A
C332        H343   1.084       .  S
C333        C334   1.400       .  A
C334        C335   1.408       .  A
C334        H344   1.084       .  S
C335        C336   1.412       .  A
C336        H345   1.084       .  S
C337        C338   1.408       .  A
C337        H346   1.084       .  S
C338        C339   1.408       .  A
C339        H347   1.085       .  S
C348        C349   1.402       .  A
C348        C353   1.405       .  A
C348        H364   1.084       .  S
C349        C350   1.405       .  A
C349        H365   1.083       .  S
C350        C360   1.406       .  A
C350        C351   1.412       .  A
C351        C357   1.411       .  A
C351        C352   1.412       .  A
C352        C354   1.412       .  A
C352        C353   1.413       .  A
C353        C361   1.407       .  A
C354        C363   1.401       .  A
C354        C355   1.402       .  A
C355        C356   1.397       .  A
C355        H366   1.084       .  S
C356        C357   1.403       .  A
C356        H367   1.083       .  S
C357        C358   1.400       .  A
C358        C359   1.407       .  A
C358        H368   1.084       .  S
C359        C360   1.409       .  A
C360        H369   1.083       .  S
C361        C362   1.406       .  A
C361        H370   1.084       .  S
C362        C363   1.403       .  A
C363        H371   1.085       .  S
C372        C373   1.394       .  A
C372        C377   1.402       .  A
C372        H388   1.083       .  S
C373        C374   1.401       .  A
C373        H389   1.084       .  S
C374        C384   1.396       .  A
C374        C375   1.410       .  A
C375        C381   1.412       .  A
C375        C376   1.414       .  A
C376        C378   1.412       .  A
C376        C377   1.409       .  A
C377        C385   1.396       .  A
C378        C387   1.414       .  A
C378        C379   1.406       .  A
C379        C380   1.405       .  A
C379        H390   1.083       .  S
C380        C381   1.406       .  A
C380        H391   1.083       .  S
C381        C382   1.413       .  A
C382        C383   1.410       .  A
C382        H392   1.083       .  S
C383        C384   1.406       .  A
C384        H393   1.085       .  S
C385        C386   1.409       .  A
C385        H394   1.084       .  S
C386        C387   1.412       .  A
C387        H395   1.084       .  S
C396        C397   1.398       .  A
C396        C401   1.403       .  A
C396        H412   1.083       .  S
C397        C398   1.403       .  A
C397        H413   1.084       .  S
C398        C408   1.401       .  A
C398        C399   1.411       .  A
C399        C405   1.412       .  A
C399        C400   1.413       .  A
C400        C402   1.413       .  A
C400        C401   1.411       .  A
C401        C409   1.401       .  A
C402        C411   1.407       .  A
C402        C403   1.404       .  A
C403        C404   1.401       .  A
C403        H414   1.084       .  S
C404        C405   1.404       .  A
C404        H415   1.080       .  S
C405        C406   1.408       .  A
C406        C407   1.407       .  A
C406        H416   1.083       .  S
C407        C408   1.406       .  A
C408        H417   1.085       .  S
C409        C410   1.407       .  A
C409        H418   1.084       .  S
C410        C411   1.407       .  A
C411        H419   1.084       .  S
C420        C421   1.400       .  A
C420        C425   1.404       .  A
C420        H436   1.083       .  S
C421        C422   1.404       .  A
C421        H437   1.083       .  S
C422        C432   1.404       .  A
C422        C423   1.410       .  A
C423        C429   1.412       .  A
C423        C424   1.414       .  A
C424        C426   1.411       .  A
C424        C425   1.411       .  A
C425        C433   1.404   1_554  A
C426        C435   1.405   1_554  A
C426        C427   1.404       .  A
C427        C428   1.400       .  A
C427        H438   1.084       .  S
C428        C429   1.404       .  A
C428        H439   1.084       .  S
C429        C430   1.405       .  A
C430        C431   1.408       .  A
C430        H440   1.084       .  S
C431        C432   1.411       .  A
C432        H441   1.084       .  S
C433        C434   1.410       .  A
C433        H442   1.084       .  S
C434        C435   1.408       .  A
C435        H443   1.084       .  S
C444        N445   1.356       .  A
C444        N449   1.362       .  A
C444        C853   1.484       .  S
N445        C446   1.358       .  A
C446        N447   1.361       .  A
C446        C829   1.492       .  S
N447        C448   1.366       .  A
C448        N449   1.368       .  A
C448        C874   1.497       .  S
C450        N451   1.354       .  A
C450        N455   1.362       .  A
C450        C805   1.483       .  S
N451        C452   1.357       .  A
C452        N453   1.360       .  A
C452        C778   1.488       .  S
N453        C454   1.365       .  A
C454        N455   1.367       .  A
C454        C877   1.495       .  S
C456        N457   1.361   1_565  A
C456        N461   1.357       .  A
C456        C709   1.478       .  S
N457        C458   1.365       .  A
C458        N459   1.364       .  A
C458        C754   1.493       .  S
N459        C460   1.360   1_545  A
C460        N461   1.361       .  A
C460        C730   1.490       .  S
C462        N463   1.361   1_565  A
C462        N467   1.358       .  A
C462        C658   1.483       .  S
N463        C464   1.365       .  A
C464        N465   1.364   1_545  A
C464        C757   1.494       .  S
N465        C466   1.361       .  A
C466        N467   1.362       .  A
C466        C685   1.491       .  S
C468        N469   1.355       .  A
C468        N473   1.357       .  A
C468        C613   1.476       .  S
N469        C470   1.359       .  A
C470        N471   1.358       .  A
C470        C586   1.483       .  S
N471        C472   1.361       .  A
C472        N473   1.363       .  A
C472        C634   1.482       .  S
C474        N475   1.355       .  A
C474        N479   1.355       .  A
C474        C562   1.472       .  S
N475        C476   1.362       .  A
C476        N477   1.362       .  A
C476        C637   1.482       .  S
N477        C478   1.359       .  A
C478        N479   1.359       .  A
C478        C538   1.484       .  S
O480       Mn506   2.111       .  S
C481        C802   1.490       .  S
C481        O514   1.274       .  A
C481        O511   1.273       .  A
O482       Mn489   2.180       .  S
O482       Mn500   2.122       .  S
O482       Mn504   2.177       .  S
O483       Mn517   2.113       .  S
O483        C493   1.277       .  A
O484       Mn500   2.113       .  S
O484        C507   1.276       .  A
O485       Mn504   2.119       .  S
O485        C512   1.254       .  A
O486      Mn1403   1.957       .  S
O486       Mn506   1.953       .  S
O486        C502   1.215       .  S
C487        C733   1.487       .  S
C487        O490   1.256       .  A
C487        O513   1.218       .  S
O488      Mn1394   2.118       .  S
O488       Mn489   2.177       .  S
O488       Mn522   2.132       .  S
O488       Mn504   2.171       .  S
Mn489      O1404   2.129       .  S
Mn489       O494   2.102       .  S
Mn489       O938   2.168   1_565  S
O490      Mn1390   2.129   1_455  S
O491       Mn498   2.093       .  S
O491        C493   1.271       .  A
C492        C682   1.482       .  S
C492        O518   1.253       .  A
C492        O505   1.220       .  S
C493        C850   1.489       .  S
O494        C519   1.253       .  A
O495       Mn932   2.182   1_455  S
O495       Mn498   2.124       .  S
O495       Mn517   2.118       .  S
O495       Mn947   2.182   1_455  S
O496       Mn500   1.969       .  S
O496       Mn522   1.966       .  S
O496        C519   1.221       .  S
C497        C610   1.488       .  S
C497       O1409   1.273       .  A
C497        O499   1.275       .  A
Mn498       O511   2.101       .  S
O499       Mn522   2.114       .  S
Mn500       O516   2.112       .  S
Mn500       O510   1.967       .  S
O501        C503   1.275   1_545  A
C502        C589   1.478       .  S
C502        O520   1.252       .  A
C503        C661   1.498       .  S
C503        O516   1.276       .  A
Mn504      O1376   2.121       .  S
Mn504       O938   2.173   1_565  S
O505       Mn508   1.965       .  S
Mn506       O524   1.947       .  S
C507        C706   1.494       .  S
Mn508       O515   2.104       .  S
Mn508       O523   2.092       .  S
Mn508      O1374   2.115   1_455  S
Mn508       O513   1.960       .  S
C509        C565   1.483       .  S
C509       O1401   1.272       .  A
C509        O525   1.274       .  A
O510       Mn522   1.960       .  S
O510        C512   1.219       .  S
C512        C826   1.484       .  S
O514       Mn517   2.104       .  S
O515       C1395   1.275   1_455  A
Mn517      O1372   1.962   1_455  S
Mn517      O1410   1.973   1_455  S
O518      Mn1375   2.112   1_455  S
C519        C781   1.477       .  S
O521        C526   1.255       .  A
Mn522       O525   2.103       .  S
O523       C1383   1.273   1_455  A
O524      Mn1403   1.960       .  S
O524        C526   1.216       .  S
C526        C541   1.482       .  S
C527        C528   1.405       .  A
C527       C1418   1.406       .  A
C527        H543   1.084       .  S
C528       C1415   1.406       .  A
C528        H544   1.083       .  S
C529       C1414   1.406       .  A
C529        C539   1.409       .  A
C529        C530   1.410       .  A
C530        C536   1.412       .  A
C530        C531   1.411       .  A
C531        C533   1.408       .  A
C531        C532   1.413       .  A
C532       C1413   1.405       .  A
C532       C1426   1.411       .  A
C533        C542   1.393       .  A
C533        C534   1.403       .  A
C534        C535   1.393       .  A
C534        H545   1.082       .  S
C535        C536   1.400       .  A
C535        H546   1.086       .  S
C536        C537   1.395       .  A
C537        C538   1.405       .  A
C537        H547   1.086       .  S
C538        C539   1.411       .  A
C539       H1434   1.083       .  S
C540       C1418   1.413       .  A
C540       C1427   1.410       .  A
C540        H549   1.084       .  S
C541       C1426   1.408       .  A
C541        C542   1.408       .  A
C542        H550   1.083       .  S
H548       C1425   1.084       .  S
C551        C552   1.398       .  A
C551        C556   1.403       .  A
C551        H567   1.085       .  S
C552        C553   1.403       .  A
C552        H568   1.082       .  S
C553        C563   1.402       .  A
C553        C554   1.412       .  A
C554        C560   1.413       .  A
C554        C555   1.413       .  A
C555        C557   1.412       .  A
C555        C556   1.411       .  A
C556        C564   1.400       .  A
C557        C566   1.407       .  A
C557        C558   1.405       .  A
C558        C559   1.402       .  A
C558        H569   1.083       .  S
C559        C560   1.405       .  A
C559        H570   1.084       .  S
C560        C561   1.407       .  A
C561        C562   1.405       .  A
C561        H571   1.085       .  S
C562        C563   1.403       .  A
C563        H572   1.084       .  S
C564        C565   1.407       .  A
C564        H573   1.085       .  S
C565        C566   1.409       .  A
C566        H574   1.083       .  S
C575        C576   1.393       .  A
C575        C580   1.402       .  A
C575        H591   1.082       .  S
C576        C577   1.400       .  A
C576        H592   1.086       .  S
C577        C587   1.395       .  A
C577        C578   1.412       .  A
C578       C1470   1.411       .  A
C578        C579   1.411       .  A
C579       C1467   1.413       .  A
C579        C580   1.408       .  A
C580        C588   1.392       .  A
C581       C1465   1.413       .  A
C581        C590   1.416       .  A
C581        C582   1.406       .  A
C582        C583   1.406       .  A
C582        H593   1.084       .  S
C583        C584   1.407       .  A
C583        H594   1.082       .  S
C584       C1464   1.411       .  A
C584        C585   1.414       .  A
C585       C1472   1.414       .  A
C585        H595   1.083       .  S
C586       C1471   1.412       .  A
C586        C587   1.404       .  A
C587        H596   1.086       .  S
C588        C589   1.406       .  A
C588        H597   1.084       .  S
C589       C1476   1.408       .  A
C590       C1475   1.411       .  A
C590        H598   1.084       .  S
C599        C600   1.403       .  A
C599        C604   1.405       .  A
C599        H615   1.083       .  S
C600        C601   1.405       .  A
C600        H616   1.083       .  S
C601        C611   1.411       .  A
C601        C602   1.413       .  A
C602        C608   1.410       .  A
C602        C603   1.415       .  A
C603        C605   1.413       .  A
C603        C604   1.412       .  A
C604        C612   1.409       .  A
C605        C614   1.402       .  A
C605       C1492   1.402       .  A
C606       C1491   1.402       .  A
C606        C607   1.397       .  A
C606        H617   1.085       .  S
C607       C1494   1.404       .  A
C607        H618   1.082       .  S
C608       C1493   1.404       .  A
C608        C609   1.401       .  A
C609        C610   1.409       .  A
C609        H619   1.084       .  S
C610        C611   1.410       .  A
C611        H620   1.083       .  S
C612        C613   1.407       .  A
C612        H621   1.084       .  S
C613        C614   1.403       .  A
C614       H1508   1.086       .  S
H622       C1500   1.086   1_455  S
C623        C624   1.400       .  A
C623        C628   1.404       .  A
C623        H639   1.084       .  S
C624        C625   1.403       .  A
C624        H640   1.084       .  S
C625        C635   1.406       .  A
C625       C1512   1.412       .  A
C626       C1511   1.411       .  A
C626        C632   1.411       .  A
C626        C627   1.411       .  A
C627        C629   1.411       .  A
C627       C1514   1.411       .  A
C628       C1513   1.411       .  A
C628        C636   1.405   1_554  A
C629        C638   1.398   1_554  A
C629        C630   1.402       .  A
C630        C631   1.396       .  A
C630        H641   1.085       .  S
C631        C632   1.402       .  A
C631        H642   1.083       .  S
C632        C633   1.399       .  A
C633        C634   1.406       .  A
C633        H643   1.084       .  S
C634       C1521   1.409       .  A
C635       C1520   1.407       .  A
C635        H644   1.085       .  S
C636       C1523   1.408       .  A
C636        H645   1.084       .  S
C637       C1522   1.409       .  A
C637        C638   1.406       .  A
C638        H646   1.085       .  S
C647        C648   1.402       .  A
C647        C652   1.404       .  A
C647        H663   1.087       .  S
C648        C649   1.406       .  A
C648        H664   1.080       .  S
C649        C659   1.409       .  A
C649        C650   1.412       .  A
C650        C656   1.413   1_565  A
C650        C651   1.418       .  A
C651        C653   1.411   1_565  A
C651        C652   1.412       .  A
C652        C660   1.408       .  A
C653        C662   1.410       .  A
C654        C655   1.405       .  A
C654        H665   1.085       .  S
C655        H666   1.082       .  S
C656        C657   1.410       .  A
C657        C658   1.406   1_545  A
C658        C659   1.407       .  A
C659        H668   1.082       .  S
C660        C661   1.411       .  A
C660        H669   1.086       .  S
C661        C662   1.413   1_565  A
C662        H670   1.083       .  S
C671        C672   1.395       .  A
C671        C676   1.401       .  A
C671        H687   1.086       .  S
C672        C673   1.402       .  A
C672        H688   1.082       .  S
C673        C683   1.398       .  A
C673        C674   1.410       .  A
C674        C680   1.413       .  A
C674        C675   1.415       .  A
C675        C677   1.411       .  A
C675        C676   1.412       .  A
C676        C684   1.399       .  A
C677        C686   1.413   1_565  A
C677        C678   1.407   1_565  A
C678        C679   1.405       .  A
C678        H689   1.082       .  S
C679        C680   1.406   1_545  A
C679        H690   1.084       .  S
C680        C681   1.412       .  A
C681        C682   1.409       .  A
C681        H691   1.084       .  S
C682        C683   1.405       .  A
C683        H692   1.084       .  S
C684        C685   1.405       .  A
C684        H693   1.086       .  S
C685        C686   1.414   1_565  A
C686        H694   1.083       .  S
C695        C696   1.400       .  A
C695        C700   1.404       .  A
C695        H711   1.082       .  S
C696        C697   1.404       .  A
C696        H712   1.084       .  S
C697        C707   1.405       .  A
C697        C698   1.410   1_545  A
C698        C704   1.412       .  A
C698        C699   1.417       .  A
C699        C701   1.413       .  A
C699        C700   1.413   1_565  A
C700        C708   1.407       .  A
C701        C710   1.408       .  A
C701        C702   1.404       .  A
C702        C703   1.402       .  A
C702        H713   1.085       .  S
C703        C704   1.405       .  A
C703        H714   1.082       .  S
C704        C705   1.410       .  A
C705        C706   1.411       .  A
C705        H715   1.083       .  S
C706        C707   1.411   1_565  A
C707        H716   1.084       .  S
C708        C709   1.405   1_545  A
C708        H717   1.084       .  S
C709        C710   1.405       .  A
C710        H718   1.086       .  S
C719        C720   1.405       .  A
C719        C724   1.405   1_545  A
C719        H735   1.084       .  S
C720        C721   1.406   1_545  A
C720        H736   1.083       .  S
C721        C731   1.411   1_565  A
C721        C722   1.411       .  A
C722        C728   1.412       .  A
C722        C723   1.415       .  A
C723        C725   1.409       .  A
C723        C724   1.413       .  A
C724        C732   1.414       .  A
C725        C734   1.398       .  A
C725        C726   1.403       .  A
C726        C727   1.396       .  A
C726        H737   1.082       .  S
C727        C728   1.402       .  A
C727        H738   1.086       .  S
C728        C729   1.401       .  A
C729        C730   1.406       .  A
C729        H739   1.086       .  S
C730        C731   1.413   1_565  A
C731        H740   1.084       .  S
C732        C733   1.409       .  A
C732        H741   1.084       .  S
C733        C734   1.408       .  A
C734        H742   1.084       .  S
C743        C744   1.400       .  A
C743        C748   1.404       .  A
C743        H759   1.084   1_545  S
C744        C745   1.404       .  A
C744        H760   1.084   1_545  S
C745        C755   1.406       .  A
C745        C746   1.411       .  A
C746        C752   1.411       .  A
C746        C747   1.416       .  A
C747        C749   1.411       .  A
C747        C748   1.411       .  A
C748        C756   1.406   1_554  A
C749        C758   1.407   1_554  A
C749        C750   1.404       .  A
C750        C751   1.401       .  A
C750        H761   1.084       .  S
C751        C752   1.404       .  A
C751        H762   1.084       .  S
C752        C753   1.407       .  A
C753        C754   1.410       .  A
C753        H763   1.084       .  S
C754        C755   1.411       .  A
C755        H764   1.084   1_545  S
C756        C757   1.411       .  A
C756        H765   1.084       .  S
C757        C758   1.410       .  A
C758        H766   1.084       .  S
C767        C768   1.403       .  A
C767        C772   1.405       .  A
C767        H783   1.083       .  S
C768        C769   1.405       .  A
C768        H784   1.083       .  S
C769        C779   1.410       .  A
C769        C770   1.412       .  A
C770        C776   1.410       .  A
C770        C771   1.412       .  A
C771        C773   1.411       .  A
C771        C772   1.412       .  A
C772        C780   1.409       .  A
C773        C782   1.397       .  A
C773        C774   1.402       .  A
C774        C775   1.395       .  A
C774        H785   1.084       .  S
C775        C776   1.402       .  A
C775        H786   1.084       .  S
C776        C777   1.398       .  A
C777        C778   1.408       .  A
C777        H787   1.084       .  S
C778        C779   1.411       .  A
C779        H788   1.084       .  S
C780        C781   1.408       .  A
C780        H789   1.084       .  S
C781        C782   1.405       .  A
C782        H790   1.085       .  S
C791        C792   1.402       .  A
C791        C796   1.405       .  A
C791        H807   1.083       .  S
C792        C793   1.405       .  A
C792        H808   1.085       .  S
C793        C803   1.407       .  A
C793        C794   1.412       .  A
C794        C800   1.412       .  A
C794        C795   1.416       .  A
C795        C797   1.411       .  A
C795        C796   1.413       .  A
C796        C804   1.410       .  A
C797        C806   1.404       .  A
C797        C798   1.404       .  A
C798        C799   1.400       .  A
C798        H809   1.084       .  S
C799        C800   1.404       .  A
C799        H810   1.083       .  S
C800        C801   1.407       .  A
C801        C802   1.409       .  A
C801        H811   1.084       .  S
C802        C803   1.410       .  A
C803        H812   1.085       .  S
C804        C805   1.406       .  A
C804        H813   1.084       .  S
C805        C806   1.408       .  A
C806        H814   1.085       .  S
C815        C816   1.396       .  A
C815        C820   1.403       .  A
C815        H831   1.084       .  S
C816        C817   1.402       .  A
C816        H832   1.084       .  S
C817        C827   1.399       .  A
C817        C818   1.410       .  A
C818        C824   1.413       .  A
C818        C819   1.415       .  A
C819        C821   1.412       .  A
C819        C820   1.411       .  A
C820        C828   1.400       .  A
C821        C830   1.412       .  A
C821        C822   1.406       .  A
C822        C823   1.405       .  A
C822        H833   1.083       .  S
C823        C824   1.405       .  A
C823        H834   1.083       .  S
C824        C825   1.412       .  A
C825        C826   1.409       .  A
C825        H835   1.084       .  S
C826        C827   1.406       .  A
C827        H836   1.085       .  S
C828        C829   1.408       .  A
C828        H837   1.084       .  S
C829        C830   1.412       .  A
C830        H838   1.084       .  S
C839        C840   1.398       .  A
C839        C844   1.403       .  A
C839        H855   1.083       .  S
C840        C841   1.403       .  A
C840        H856   1.084       .  S
C841        C851   1.405       .  A
C841        C842   1.413       .  A
C842        C848   1.411       .  A
C842        C843   1.416       .  A
C843        C845   1.414       .  A
C843        C844   1.411       .  A
C844        C852   1.403       .  A
C845        C854   1.413       .  A
C845        C846   1.406       .  A
C846        C847   1.404       .  A
C846        H857   1.083       .  S
C847        C848   1.406       .  A
C847        H858   1.084       .  S
C848        C849   1.409       .  A
C849        C850   1.412       .  A
C849        H859   1.084       .  S
C850        C851   1.407       .  A
C851        H860   1.084       .  S
C852        C853   1.406       .  A
C852        H861   1.085       .  S
C853        C854   1.408       .  A
C854        H862   1.084       .  S
C863        C864   1.402       .  A
C863        C868   1.405       .  A
C863        H879   1.083       .  S
C864        C865   1.405       .  A
C864        H880   1.084       .  S
C865        C875   1.409       .  A
C865        C866   1.411       .  A
C866        C872   1.411       .  A
C866        C867   1.417       .  A
C867        C869   1.411       .  A
C867        C868   1.411       .  A
C868        C876   1.408   1_554  A
C869        C878   1.406   1_554  A
C869        C870   1.404       .  A
C870        C871   1.400       .  A
C870        H881   1.084       .  S
C871        C872   1.404       .  A
C871        H882   1.083       .  S
C872        C873   1.406       .  A
C873        C874   1.411       .  A
C873        H883   1.084       .  S
C874        C875   1.411       .  A
C875        H884   1.084       .  S
C876        C877   1.411       .  A
C876        H885   1.084       .  S
C877        C878   1.411       .  A
C878        H886   1.084       .  S
C887        N888   1.356       .  A
C887        N892   1.359       .  A
C887       C1296   1.479       .  S
N888        C889   1.360       .  A
C889        N890   1.361       .  A
C889       C1272   1.493       .  S
N890        C891   1.365       .  A
C891        N892   1.364       .  A
C891       C1317   1.491       .  S
C893        N894   1.356       .  A
C893        N898   1.356       .  A
C893       C1248   1.473       .  S
N894        C895   1.359       .  A
C895        N896   1.361       .  A
C895       C1221   1.488       .  S
N896        C897   1.363       .  A
C897        N898   1.362       .  A
C897       C1320   1.488       .  S
C899        N900   1.358       .  A
C899        N904   1.356       .  A
C899       C1152   1.480       .  S
N900        C901   1.363       .  A
C901        N902   1.365       .  A
C901       C1197   1.486       .  S
N902        C903   1.361       .  A
C903        N904   1.360       .  A
C903       C1173   1.490       .  S
C905        N906   1.357       .  A
C905        N910   1.355       .  A
C905       C1101   1.477       .  S
N906        C907   1.364       .  A
C907        N908   1.367       .  A
C907       C1200   1.488       .  S
N908        C909   1.363       .  A
C909        N910   1.359       .  A
C909       C1128   1.494       .  S
C911        N912   1.356       .  A
C911        N916   1.354       .  A
C911       C1056   1.468       .  S
N912        C913   1.360       .  A
C913        N914   1.361       .  A
C913       C1029   1.488       .  S
N914        C915   1.363       .  A
C915        N916   1.359       .  A
C915       C1077   1.482       .  S
C917        N918   1.357       .  A
C917        N922   1.354       .  A
C917       C1005   1.474       .  S
N918        C919   1.364       .  A
C919        N920   1.365       .  A
C919       C1080   1.487       .  S
N920        C921   1.360       .  A
C921        N922   1.358       .  A
C921        C981   1.483       .  S
O923       Mn949   2.103       .  S
O923       C1393   1.273   1_545  A
C924       C1245   1.483       .  S
C924        O957   1.272       .  A
C924        O954   1.273       .  A
O925       Mn932   2.180       .  S
O925       Mn943   2.116       .  S
O925       Mn947   2.178       .  S
O925      Mn1392   2.124       .  S
O926       Mn960   2.097       .  S
O926        C936   1.273       .  A
O927       Mn943   2.089       .  S
O927        C950   1.271       .  A
O928       Mn947   2.136       .  S
O928        C955   1.257       .  A
O929       Mn949   1.952       .  S
O929        C945   1.216       .  S
C930       C1176   1.483       .  S
C930        O933   1.254       .  A
C930        O956   1.220       .  S
O931       Mn932   2.174       .  S
O931       Mn965   2.123       .  S
O931       Mn947   2.178       .  S
Mn932       O937   2.130       .  S
Mn932      O1407   2.114       .  S
O934       Mn941   2.102       .  S
O934        C936   1.274       .  A
C935       C1125   1.494       .  S
C935        O961   1.257       .  A
C935        O948   1.218       .  S
C936       C1293   1.486       .  S
O937        C962   1.256       .  A
O938       Mn941   2.130       .  S
O938       Mn960   2.115       .  S
O939       Mn943   1.955       .  S
O939       Mn965   1.953       .  S
O939        C962   1.214       .  S
C940       C1053   1.478       .  S
C940        O942   1.272       .  A
Mn941       O954   2.104       .  S
Mn941      O1399   1.962   1_545  S
Mn941      O1391   1.959   1_545  S
O942       Mn965   2.095       .  S
Mn943       O959   2.106       .  S
Mn943       O953   1.964       .  S
O944      Mn1392   2.094       .  S
O944        C946   1.272       .  A
C945       C1032   1.487       .  S
C945        O963   1.256       .  A
C946       C1104   1.487       .  S
C946        O959   1.276       .  A
Mn947      O1406   2.135       .  S
O948      Mn1384   1.956       .  S
O948       Mn951   1.966       .  S
Mn949      O1387   2.096       .  S
Mn949      O1368   2.124   1_545  S
Mn949       O967   1.957       .  S
C950       C1149   1.487       .  S
C950       O1366   1.275       .  A
Mn951       O958   2.099       .  S
Mn951       O966   2.094       .  S
Mn951       O956   1.962       .  S
C952       C1008   1.488       .  S
C952        O968   1.272       .  A
O953       Mn965   1.953       .  S
O953        C955   1.218       .  S
C955       C1269   1.493       .  S
O956      Mn1384   1.961       .  S
O957       Mn960   2.084       .  S
C962       C1224   1.482       .  S
O963      Mn1390   2.132   1_545  S
O964      Mn1375   2.113   1_545  S
O964        C969   1.252       .  A
Mn965       O968   2.097       .  S
O967        C969   1.218       .  S
C969        C984   1.478       .  S
C970        C971   1.404       .  A
C970        H986   1.085       .  S
C971        H987   1.082       .  S
C972        C982   1.412       .  A
C972        C973   1.413       .  A
C973        C979   1.411       .  A
C973        C974   1.413       .  A
C974        C976   1.410       .  A
C974        C975   1.413       .  A
C976        C985   1.397   1_655  A
C976        C977   1.402   1_655  A
C977        C978   1.394       .  A
C977        H988   1.081       .  S
C978        C979   1.401   1_455  A
C978        H989   1.087       .  S
C979        C980   1.396       .  A
C980        C981   1.404       .  A
C980        H990   1.087       .  S
C981        C982   1.411       .  A
C983        H992   1.085       .  S
C984        C985   1.405   1_655  A
C985        H993   1.083       .  S
C994        C995   1.399       .  A
C994        C999   1.403       .  A
C994       H1010   1.084       .  S
C995        C996   1.403   1_455  A
C995       H1011   1.082       .  S
C996       C1006   1.403       .  A
C996        C997   1.412       .  A
C997       C1003   1.413       .  A
C997        C998   1.414       .  A
C998       C1000   1.412       .  A
C998        C999   1.412   1_655  A
C999       C1007   1.404       .  A
C1000      C1009   1.407       .  A
C1000      C1001   1.405       .  A
C1001      C1002   1.402       .  A
C1001      H1012   1.084       .  S
C1002      C1003   1.405       .  A
C1002      H1013   1.084       .  S
C1003      C1004   1.408       .  A
C1004      C1005   1.405       .  A
C1004      H1014   1.084       .  S
C1005      C1006   1.404       .  A
C1006      H1015   1.084   1_655  S
C1007      C1008   1.408   1_455  A
C1007      H1016   1.085       .  S
C1008      C1009   1.411       .  A
C1009      H1017   1.085       .  S
C1018      C1019   1.395       .  A
C1018      C1023   1.403       .  A
C1018      H1034   1.082       .  S
C1019      C1020   1.401       .  A
C1019      H1035   1.086       .  S
C1020      C1030   1.399       .  A
C1020      C1021   1.412       .  A
C1021      C1022   1.413       .  A
C1022      C1023   1.408       .  A
C1023      C1031   1.396       .  A
C1024      C1033   1.408       .  A
C1024      C1025   1.404       .  A
C1025      C1026   1.402       .  A
C1025      H1036   1.084       .  S
C1026      C1027   1.405       .  A
C1026      H1037   1.083       .  S
C1027      C1028   1.407       .  A
C1028      H1038   1.084       .  S
C1029      C1030   1.407       .  A
C1030      H1039   1.085       .  S
C1031      C1032   1.410       .  A
C1031      H1040   1.083       .  S
C1033      H1041   1.084       .  S
C1042      C1043   1.400       .  A
C1042      C1047   1.405       .  A
C1042      H1058   1.082       .  S
C1043      C1044   1.403       .  A
C1043      H1059   1.086       .  S
C1044      C1054   1.403       .  A
C1044      C1045   1.413       .  A
C1045      C1051   1.410   1_655  A
C1045      C1046   1.410       .  A
C1046      C1048   1.413   1_655  A
C1046      C1047   1.412       .  A
C1047      C1055   1.405       .  A
C1048      C1057   1.399   1_455  A
C1049      C1050   1.398       .  A
C1049      H1060   1.086       .  S
C1050      H1061   1.082       .  S
C1051      C1052   1.399       .  A
C1052      C1053   1.408   1_455  A
C1052      H1062   1.083       .  S
C1053      C1054   1.407       .  A
C1054      H1063   1.086       .  S
C1055      C1056   1.405       .  A
C1055      H1064   1.084       .  S
C1056      C1057   1.401       .  A
C1066      C1067   1.402       .  A
C1066      C1071   1.405       .  A
C1066      H1082   1.083       .  S
C1067      C1068   1.404       .  A
C1067      H1083   1.084       .  S
C1068      C1078   1.407       .  A
C1069      C1075   1.410       .  A
C1069      C1070   1.412       .  A
C1070      C1072   1.411       .  A
C1071      C1079   1.407   1_554  A
C1072      C1081   1.403   1_554  A
C1072      C1073   1.404       .  A
C1073      C1074   1.398       .  A
C1073      H1084   1.084       .  S
C1074      C1075   1.403       .  A
C1074      H1085   1.083       .  S
C1075      C1076   1.401       .  A
C1076      C1077   1.409       .  A
C1076      H1086   1.084       .  S
C1078      H1087   1.085       .  S
C1079      H1088   1.084       .  S
C1080      C1081   1.409       .  A
C1081      H1089   1.085       .  S
C1090      C1091   1.397       .  A
C1090      C1095   1.402       .  A
C1090      H1106   1.086       .  S
C1091      C1092   1.403       .  A
C1091      H1107   1.081       .  S
C1092      C1102   1.401       .  A
C1092      C1093   1.411       .  A
C1093      C1099   1.413       .  A
C1093      C1094   1.415       .  A
C1094      C1096   1.411       .  A
C1094      C1095   1.413       .  A
C1095      C1103   1.402       .  A
C1096      C1105   1.408       .  A
C1096      C1540   1.406       .  A
C1097      C1539   1.405       .  A
C1097      C1098   1.401       .  A
C1097      H1108   1.081       .  S
C1098      C1542   1.405       .  A
C1098      H1109   1.085       .  S
C1099      C1541   1.406       .  A
C1099      C1100   1.411       .  A
C1100      C1101   1.408       .  A
C1100      H1553   1.083       .  S
C1101      C1102   1.403       .  A
C1102      H1111   1.083       .  S
C1103      C1104   1.406       .  A
C1103      H1112   1.086       .  S
C1104      C1105   1.412       .  A
C1105      H1113   1.084       .  S
H1110      C1543   1.084       .  S
C1114      C1115   1.395       .  A
C1114      C1119   1.402       .  A
C1114      H1130   1.085       .  S
C1115      C1116   1.403       .  A
C1115      H1131   1.083       .  S
C1116      C1126   1.399       .  A
C1116      C1117   1.409       .  A
C1117      C1123   1.413       .  A
C1117      C1118   1.417       .  A
C1118      C1120   1.412       .  A
C1118      C1119   1.411       .  A
C1119      C1127   1.399       .  A
C1120      C1129   1.415       .  A
C1120      C1121   1.407       .  A
C1121      C1122   1.407       .  A
C1121      H1132   1.083       .  S
C1122      C1123   1.406       .  A
C1122      H1133   1.084       .  S
C1123      C1124   1.417       .  A
C1124      C1125   1.411       .  A
C1124      H1134   1.084       .  S
C1125      C1126   1.410       .  A
C1126      H1135   1.084       .  S
C1127      C1128   1.408       .  A
C1127      H1136   1.085       .  S
C1128      C1129   1.413       .  A
C1129      H1137   1.083       .  S
C1138      C1139   1.402       .  A
C1138      C1143   1.405       .  A
C1138      H1154   1.083       .  S
C1139      C1140   1.404       .  A
C1139      H1155   1.085       .  S
C1140      C1150   1.408       .  A
C1140      C1141   1.413       .  A
C1141      C1147   1.410       .  A
C1141      C1142   1.415       .  A
C1142      C1144   1.413       .  A
C1142      C1143   1.412       .  A
C1143      C1151   1.408       .  A
C1144      C1153   1.404       .  A
C1144      C1145   1.403       .  A
C1145      C1146   1.400       .  A
C1145      H1156   1.085       .  S
C1146      C1147   1.405       .  A
C1146      H1157   1.082       .  S
C1147      C1148   1.404       .  A
C1148      C1149   1.410       .  A
C1148      H1158   1.083       .  S
C1149      C1150   1.408       .  A
C1150      H1159   1.085       .  S
C1151      C1152   1.407       .  A
C1151      H1160   1.084       .  S
C1152      C1153   1.406       .  A
C1153      H1161   1.086       .  S
C1162      C1163   1.405       .  A
C1162      C1167   1.406       .  A
C1162      H1178   1.084       .  S
C1163      C1164   1.407       .  A
C1163      H1179   1.083       .  S
C1164      C1174   1.413       .  A
C1164      C1165   1.412       .  A
C1165      C1171   1.411       .  A
C1165      C1166   1.414       .  A
C1166      C1168   1.410       .  A
C1166      C1167   1.413       .  A
C1167      C1175   1.413       .  A
C1168      C1177   1.396       .  A
C1168      C1169   1.402       .  A
C1169      C1170   1.394       .  A
C1169      H1180   1.082       .  S
C1170      C1171   1.401       .  A
C1170      H1181   1.086       .  S
C1171      C1172   1.397       .  A
C1172      C1173   1.406       .  A
C1172      H1182   1.086       .  S
C1173      C1174   1.413       .  A
C1174      H1183   1.083       .  S
C1175      C1176   1.410       .  A
C1175      H1184   1.084       .  S
C1176      C1177   1.405       .  A
C1177      H1185   1.084       .  S
C1186      C1187   1.401       .  A
C1186      C1191   1.404       .  A
C1186      H1202   1.084       .  S
C1187      C1188   1.404       .  A
C1187      H1203   1.084       .  S
C1188      C1198   1.406       .  A
C1188      C1189   1.412       .  A
C1189      C1195   1.411       .  A
C1189      C1190   1.415       .  A
C1190      C1192   1.411       .  A
C1190      C1191   1.412       .  A
C1191      C1199   1.407   1_554  A
C1192      C1201   1.404   1_554  A
C1192      C1193   1.404       .  A
C1193      C1194   1.399       .  A
C1193      H1204   1.084       .  S
C1194      C1195   1.404       .  A
C1194      H1205   1.084       .  S
C1195      C1196   1.404       .  A
C1196      C1197   1.409       .  A
C1196      H1206   1.085       .  S
C1197      C1198   1.408       .  A
C1198      H1207   1.085       .  S
C1199      C1200   1.408       .  A
C1199      H1208   1.084       .  S
C1200      C1201   1.409       .  A
C1201      H1209   1.085       .  S
C1210      C1211   1.402       .  A
C1210      C1215   1.404       .  A
C1210      H1226   1.084       .  S
C1211      C1212   1.405       .  A
C1211      H1227   1.083       .  S
C1212      C1222   1.408       .  A
C1212      C1213   1.410       .  A
C1213      C1219   1.411       .  A
C1213      C1214   1.413       .  A
C1214      C1216   1.408       .  A
C1214      C1215   1.414       .  A
C1215      C1223   1.410       .  A
C1216      C1225   1.397       .  A
C1216      C1217   1.403       .  A
C1217      C1218   1.396       .  A
C1217      H1228   1.083       .  S
C1218      C1219   1.403       .  A
C1218      H1229   1.084       .  S
C1219      C1220   1.401       .  A
C1220      C1221   1.408       .  A
C1220      H1230   1.084       .  S
C1221      C1222   1.410       .  A
C1222      H1231   1.084       .  S
C1223      C1224   1.406       .  A
C1223      H1232   1.084       .  S
C1224      C1225   1.409       .  A
C1225      H1233   1.084       .  S
C1234      C1235   1.403       .  A
C1234      C1239   1.406       .  A
C1234      H1250   1.083       .  S
C1235      C1236   1.405       .  A
C1235      H1251   1.084       .  S
C1236      C1246   1.409       .  A
C1236      C1237   1.413       .  A
C1237      C1243   1.410       .  A
C1237      C1238   1.412       .  A
C1238      C1240   1.413       .  A
C1238      C1239   1.412       .  A
C1239      C1247   1.408       .  A
C1240      C1249   1.400       .  A
C1240      C1241   1.402       .  A
C1241      C1242   1.396       .  A
C1241      H1252   1.084       .  S
C1242      C1243   1.403       .  A
C1242      H1253   1.083       .  S
C1243      C1244   1.397       .  A
C1244      C1245   1.406       .  A
C1244      H1254   1.084       .  S
C1245      C1246   1.410       .  A
C1246      H1255   1.084       .  S
C1247      C1248   1.407       .  A
C1247      H1256   1.084       .  S
C1248      C1249   1.402       .  A
C1249      H1257   1.085       .  S
C1258      C1259   1.396       .  A
C1258      C1263   1.402       .  A
C1258      H1274   1.083       .  S
C1259      C1260   1.403       .  A
C1259      H1275   1.084       .  S
C1260      C1270   1.399       .  A
C1260      C1261   1.409       .  A
C1261      C1267   1.413       .  A
C1261      C1262   1.416       .  A
C1262      C1264   1.411       .  A
C1262      C1263   1.411       .  A
C1263      C1271   1.400       .  A
C1264      C1273   1.413       .  A
C1264      C1265   1.406       .  A
C1265      C1266   1.406       .  A
C1265      H1276   1.083       .  S
C1266      C1267   1.406       .  A
C1266      H1277   1.083       .  S
C1267      C1268   1.416       .  A
C1268      C1269   1.411       .  A
C1268      H1278   1.083       .  S
C1269      C1270   1.409       .  A
C1270      H1279   1.085       .  S
C1271      C1272   1.408       .  A
C1271      H1280   1.084       .  S
C1272      C1273   1.413       .  A
C1273      H1281   1.084       .  S
C1282      C1283   1.400       .  A
C1282      C1287   1.404       .  A
C1282      H1298   1.083       .  S
C1283      C1284   1.404       .  A
C1283      H1299   1.084       .  S
C1284      C1294   1.404       .  A
C1284      C1285   1.412       .  A
C1285      C1291   1.412       .  A
C1285      C1286   1.415       .  A
C1286      C1288   1.413       .  A
C1286      C1287   1.412       .  A
C1287      C1295   1.404       .  A
C1288      C1297   1.408       .  A
C1288      C1289   1.405       .  A
C1289      C1290   1.401       .  A
C1289      H1300   1.084       .  S
C1290      C1291   1.404       .  A
C1290      H1301   1.083       .  S
C1291      C1292   1.407       .  A
C1292      C1293   1.409       .  A
C1292      H1302   1.084       .  S
C1293      C1294   1.409       .  A
C1294      H1303   1.084       .  S
C1295      C1296   1.406       .  A
C1295      H1304   1.084       .  S
C1296      C1297   1.406       .  A
C1297      H1305   1.085       .  S
C1306      C1307   1.399       .  A
C1306      C1311   1.404       .  A
C1306      H1322   1.084       .  S
C1307      C1308   1.404       .  A
C1307      H1323   1.084       .  S
C1308      C1318   1.405       .  A
C1308      C1309   1.411       .  A
C1309      C1315   1.411       .  A
C1309      C1310   1.414       .  A
C1310      C1312   1.411       .  A
C1310      C1311   1.410       .  A
C1311      C1319   1.403   1_554  A
C1312      C1321   1.406   1_554  A
C1312      C1313   1.404       .  A
C1313      C1314   1.400       .  A
C1313      H1324   1.083       .  S
C1314      C1315   1.404       .  A
C1314      H1325   1.084       .  S
C1315      C1316   1.405       .  A
C1316      C1317   1.410       .  A
C1316      H1326   1.084       .  S
C1317      C1318   1.410       .  A
C1318      H1327   1.084       .  S
C1319      C1320   1.409       .  A
C1319      H1328   1.084       .  S
C1320      C1321   1.409       .  A
C1321      H1329   1.084       .  S
C1330      N1331   1.355       .  A
C1330      N1335   1.361       .  A
C1330      C1739   1.480       .  S
N1331      C1332   1.356       .  A
C1332      N1333   1.359       .  A
C1332      C1715   1.489       .  S
N1333      C1334   1.365       .  A
C1334      N1335   1.367       .  A
C1334      C1760   1.492       .  S
C1336      N1337   1.357       .  A
C1336      N1341   1.361       .  A
C1336      C1691   1.478       .  S
N1337      C1338   1.358       .  A
C1338      N1339   1.359       .  A
C1338      C1664   1.486       .  S
N1339      C1340   1.363       .  A
C1340      N1341   1.364       .  A
C1340      C1763   1.491       .  S
C1342      N1343   1.357   1_565  A
C1342      N1347   1.355       .  A
C1342      C1595   1.477       .  S
N1343      C1344   1.362       .  A
C1344      N1345   1.367   1_545  A
C1344      C1640   1.489       .  S
N1345      C1346   1.363       .  A
C1346      N1347   1.358       .  A
C1346      C1616   1.491       .  S
C1348      N1349   1.357   1_565  A
C1348      N1353   1.357       .  A
C1348      C1544   1.474       .  S
N1349      C1350   1.362       .  A
C1350      N1351   1.365   1_545  A
C1350      C1643   1.489       .  S
N1351      C1352   1.362       .  A
C1352      N1353   1.360       .  A
C1352      C1571   1.492       .  S
C1354      N1355   1.355       .  A
C1354      N1359   1.357       .  A
C1354      C1499   1.476       .  S
N1355      C1356   1.360       .  A
C1356      N1357   1.363       .  A
C1356      C1472   1.495       .  S
N1357      C1358   1.367       .  A
C1358      N1359   1.363       .  A
C1358      C1520   1.488       .  S
C1360      N1361   1.360       .  A
C1360      N1365   1.357       .  A
C1360      C1448   1.480       .  S
N1361      C1362   1.365       .  A
C1362      N1363   1.365       .  A
C1362      C1523   1.488       .  S
N1363      C1364   1.360       .  A
C1364      N1365   1.360       .  A
C1364      C1424   1.490       .  S
O1366     Mn1392   2.113       .  S
C1367      C1688   1.485       .  S
C1367      O1400   1.272       .  A
C1367      O1397   1.275       .  A
O1368     Mn1375   2.170       .  S
O1368     Mn1386   2.117       .  S
O1368     Mn1390   2.180       .  S
O1369     Mn1403   2.106       .  S
O1369      C1379   1.275       .  A
O1370     Mn1386   2.085       .  S
O1370      C1393   1.271       .  A
O1371     Mn1390   2.122       .  S
O1371      C1398   1.256       .  A
O1372     Mn1392   1.952       .  S
O1372      C1388   1.217       .  S
C1373      C1619   1.485       .  S
C1373      O1376   1.254       .  A
C1373      O1399   1.219       .  S
O1374     Mn1375   2.171       .  S
O1374     Mn1408   2.128       .  S
O1374     Mn1390   2.181       .  S
Mn1375     O1380   2.104       .  S
O1377     Mn1384   2.097       .  S
O1377      C1379   1.272       .  A
C1378      C1568   1.488       .  S
C1378      O1404   1.257       .  A
C1378      O1391   1.218       .  S
C1379      C1736   1.486       .  S
O1380      C1405   1.252       .  A
O1381     Mn1384   2.120       .  S
O1381     Mn1403   2.113       .  S
O1382     Mn1386   1.958       .  S
O1382     Mn1408   1.964       .  S
O1382      C1405   1.219       .  S
C1383      C1496   1.487       .  S
C1383      O1385   1.273       .  A
Mn1384     O1397   2.106       .  S
O1385     Mn1408   2.105       .  S
Mn1386     O1402   2.095       .  S
Mn1386     O1396   1.958       .  S
O1387      C1389   1.272   1_545  A
C1388      C1475   1.490       .  S
C1388      O1406   1.256       .  A
C1389      C1547   1.486       .  S
C1389      O1402   1.273       .  A
O1391     Mn1394   1.959       .  S
Mn1392     O1410   1.969       .  S
C1393      C1592   1.479       .  S
Mn1394     O1401   2.089       .  S
Mn1394     O1409   2.089       .  S
Mn1394     O1399   1.963       .  S
C1395      C1451   1.490       .  S
C1395      O1411   1.273       .  A
O1396     Mn1408   1.953       .  S
O1396      C1398   1.218       .  S
C1398      C1712   1.481       .  S
O1400     Mn1403   2.091       .  S
C1405      C1667   1.478       .  S
O1407      C1412   1.255       .  A
Mn1408     O1411   2.099       .  S
O1410      C1412   1.222       .  S
C1412      C1427   1.485       .  S
C1413      C1414   1.404       .  A
C1413      H1429   1.084       .  S
C1414      H1430   1.083       .  S
C1415      C1425   1.413       .  A
C1415      C1416   1.412       .  A
C1416      C1422   1.411       .  A
C1416      C1417   1.415       .  A
C1417      C1419   1.410       .  A
C1417      C1418   1.412       .  A
C1419      C1428   1.399   1_655  A
C1419      C1420   1.403   1_655  A
C1420      C1421   1.395       .  A
C1420      H1431   1.082       .  S
C1421      C1422   1.401   1_455  A
C1421      H1432   1.086       .  S
C1422      C1423   1.399       .  A
C1423      C1424   1.406       .  A
C1423      H1433   1.086       .  S
C1424      C1425   1.413       .  A
C1426      H1435   1.084       .  S
C1427      C1428   1.406   1_655  A
C1428      H1436   1.083       .  S
C1437      C1438   1.399       .  A
C1437      C1442   1.403   1_455  A
C1437      H1453   1.085       .  S
C1438      C1439   1.404   1_455  A
C1438      H1454   1.082       .  S
C1439      C1449   1.404       .  A
C1439      C1440   1.411       .  A
C1440      C1446   1.413       .  A
C1440      C1441   1.416       .  A
C1441      C1443   1.411       .  A
C1441      C1442   1.412       .  A
C1442      C1450   1.404   1_655  A
C1443      C1452   1.409       .  A
C1443      C1444   1.406       .  A
C1444      C1445   1.403       .  A
C1444      H1455   1.083       .  S
C1445      C1446   1.405       .  A
C1445      H1456   1.084       .  S
C1446      C1447   1.411       .  A
C1447      C1448   1.407       .  A
C1447      H1457   1.085       .  S
C1448      C1449   1.405       .  A
C1449      H1458   1.084   1_655  S
C1450      C1451   1.408   1_455  A
C1450      H1459   1.085       .  S
C1451      C1452   1.412       .  A
C1452      H1460   1.084       .  S
C1461      C1462   1.394       .  A
C1461      C1466   1.403       .  A
C1461      H1477   1.082       .  S
C1462      C1463   1.401       .  A
C1462      H1478   1.086       .  S
C1463      C1473   1.398       .  A
C1463      C1464   1.411       .  A
C1464      C1465   1.416       .  A
C1465      C1466   1.408       .  A
C1466      C1474   1.396       .  A
C1467      C1476   1.411       .  A
C1467      C1468   1.405       .  A
C1468      C1469   1.404       .  A
C1468      H1479   1.084       .  S
C1469      C1470   1.406       .  A
C1469      H1480   1.083       .  S
C1470      C1471   1.409       .  A
C1471      H1481   1.083       .  S
C1472      C1473   1.408       .  A
C1473      H1482   1.085       .  S
C1474      C1475   1.409       .  A
C1474      H1483   1.083       .  S
C1476      H1484   1.084       .  S
C1485      C1486   1.403       .  A
C1485      C1490   1.406       .  A
C1485      H1501   1.083       .  S
C1486      C1487   1.406       .  A
C1486      H1502   1.084       .  S
C1487      C1497   1.410       .  A
C1487      C1488   1.413       .  A
C1488      C1494   1.410   1_655  A
C1488      C1489   1.414       .  A
C1489      C1491   1.413   1_655  A
C1489      C1490   1.412       .  A
C1490      C1498   1.409       .  A
C1491      C1500   1.402   1_455  A
C1492      C1493   1.397       .  A
C1492      H1503   1.086       .  S
C1493      H1504   1.082       .  S
C1494      C1495   1.400       .  A
C1495      C1496   1.408   1_455  A
C1495      H1505   1.084       .  S
C1496      C1497   1.411       .  A
C1497      H1506   1.084       .  S
C1498      C1499   1.407       .  A
C1498      H1507   1.084       .  S
C1499      C1500   1.402       .  A
C1509      C1510   1.401       .  A
C1509      C1514   1.404       .  A
C1509      H1525   1.083       .  S
C1510      C1511   1.404       .  A
C1510      H1526   1.084       .  S
C1511      C1521   1.405       .  A
C1512      C1518   1.411       .  A
C1512      C1513   1.415       .  A
C1513      C1515   1.412       .  A
C1514      C1522   1.405   1_554  A
C1515      C1524   1.407   1_554  A
C1515      C1516   1.404       .  A
C1516      C1517   1.401       .  A
C1516      H1527   1.084       .  S
C1517      C1518   1.405       .  A
C1517      H1528   1.083       .  S
C1518      C1519   1.406       .  A
C1519      C1520   1.411       .  A
C1519      H1529   1.084       .  S
C1521      H1530   1.085       .  S
C1522      H1531   1.084       .  S
C1523      C1524   1.410       .  A
C1524      H1532   1.084       .  S
C1533      C1534   1.398       .  A
C1533      C1538   1.402       .  A
C1533      H1549   1.087       .  S
C1534      C1535   1.404       .  A
C1534      H1550   1.080       .  S
C1535      C1545   1.403       .  A
C1535      C1536   1.411       .  A
C1536      C1542   1.413   1_565  A
C1536      C1537   1.413       .  A
C1537      C1539   1.411   1_565  A
C1537      C1538   1.412       .  A
C1538      C1546   1.402       .  A
C1539      C1548   1.406       .  A
C1540      C1541   1.404       .  A
C1540      H1551   1.083       .  S
C1541      H1552   1.083       .  S
C1542      C1543   1.407       .  A
C1543      C1544   1.405   1_545  A
C1544      C1545   1.404       .  A
C1545      H1554   1.082       .  S
C1546      C1547   1.407       .  A
C1546      H1555   1.086       .  S
C1547      C1548   1.411   1_565  A
C1548      H1556   1.082       .  S
C1557      C1558   1.397       .  A
C1557      C1562   1.402       .  A
C1557      H1573   1.085       .  S
C1558      C1559   1.404       .  A
C1558      H1574   1.082       .  S
C1559      C1569   1.401       .  A
C1559      C1560   1.409       .  A
C1560      C1566   1.413       .  A
C1560      C1561   1.416       .  A
C1561      C1563   1.411       .  A
C1561      C1562   1.411       .  A
C1562      C1570   1.401       .  A
C1563      C1572   1.412       .  A
C1563      C1564   1.406       .  A
C1564      C1565   1.404       .  A
C1564      H1575   1.082   1_565  S
C1565      C1566   1.405       .  A
C1565      H1576   1.084   1_565  S
C1566      C1567   1.413       .  A
C1567      C1568   1.409       .  A
C1567      H1577   1.084       .  S
C1568      C1569   1.409       .  A
C1569      H1578   1.084       .  S
C1570      C1571   1.408       .  A
C1570      H1579   1.085       .  S
C1571      C1572   1.412       .  A
C1572      H1580   1.083   1_565  S
C1581      C1582   1.402       .  A
C1581      C1586   1.405       .  A
C1581      H1597   1.082       .  S
C1582      C1583   1.404       .  A
C1582      H1598   1.086       .  S
C1583      C1593   1.407       .  A
C1583      C1584   1.413   1_545  A
C1584      C1590   1.410       .  A
C1584      C1585   1.413       .  A
C1585      C1587   1.412       .  A
C1585      C1586   1.412   1_565  A
C1586      C1594   1.407       .  A
C1587      C1596   1.401       .  A
C1587      C1588   1.402       .  A
C1588      C1589   1.397       .  A
C1588      H1599   1.086       .  S
C1589      C1590   1.404       .  A
C1589      H1600   1.082       .  S
C1590      C1591   1.400       .  A
C1591      C1592   1.407       .  A
C1591      H1601   1.083       .  S
C1592      C1593   1.407   1_565  A
C1593      H1602   1.086       .  S
C1594      C1595   1.407   1_545  A
C1594      H1603   1.083       .  S
C1595      C1596   1.404       .  A
C1596      H1604   1.086       .  S
C1605      C1606   1.405       .  A
C1605      C1610   1.406   1_545  A
C1605      H1621   1.084       .  S
C1606      C1607   1.406   1_545  A
C1606      H1622   1.083       .  S
C1607      C1617   1.413       .  A
C1607      C1608   1.412       .  A
C1608      C1614   1.411       .  A
C1608      C1609   1.415       .  A
C1609      C1611   1.410       .  A
C1609      C1610   1.413       .  A
C1610      C1618   1.413       .  A
C1611      C1620   1.399       .  A
C1611      C1612   1.403       .  A
C1612      C1613   1.395       .  A
C1612      H1623   1.082       .  S
C1613      C1614   1.402       .  A
C1613      H1624   1.086       .  S
C1614      C1615   1.398       .  A
C1615      C1616   1.408       .  A
C1615      H1625   1.086       .  S
C1616      C1617   1.412       .  A
C1617      H1626   1.083   1_565  S
C1618      C1619   1.410       .  A
C1618      H1627   1.084       .  S
C1619      C1620   1.407       .  A
C1620      H1628   1.084       .  S
C1629      C1630   1.400       .  A
C1629      C1634   1.404       .  A
C1629      H1645   1.084       .  S
C1630      C1631   1.403       .  A
C1630      H1646   1.084       .  S
C1631      C1641   1.406       .  A
C1631      C1632   1.412       .  A
C1632      C1638   1.410       .  A
C1632      C1633   1.414       .  A
C1633      C1635   1.411       .  A
C1633      C1634   1.411       .  A
C1634      C1642   1.405   1_554  A
C1635      C1644   1.405   1_554  A
C1635      C1636   1.404   1_545  A
C1636      C1637   1.400       .  A
C1636      H1647   1.084       .  S
C1637      C1638   1.404   1_565  A
C1637      H1648   1.084       .  S
C1638      C1639   1.404       .  A
C1639      C1640   1.411       .  A
C1639      H1649   1.084   1_545  S
C1640      C1641   1.408       .  A
C1641      H1650   1.085       .  S
C1642      C1643   1.408       .  A
C1642      H1651   1.085       .  S
C1643      C1644   1.410       .  A
C1644      H1652   1.084   1_545  S
C1653      C1654   1.402       .  A
C1653      C1658   1.404       .  A
C1653      H1669   1.084       .  S
C1654      C1655   1.405       .  A
C1654      H1670   1.083       .  S
C1655      C1665   1.408       .  A
C1655      C1656   1.411       .  A
C1656      C1662   1.411       .  A
C1656      C1657   1.413       .  A
C1657      C1659   1.411       .  A
C1657      C1658   1.413       .  A
C1658      C1666   1.408       .  A
C1659      C1668   1.399       .  A
C1659      C1660   1.403       .  A
C1660      C1661   1.397       .  A
C1660      H1671   1.083       .  S
C1661      C1662   1.403       .  A
C1661      H1672   1.084       .  S
C1662      C1663   1.401       .  A
C1663      C1664   1.407       .  A
C1663      H1673   1.084       .  S
C1664      C1665   1.410       .  A
C1665      H1674   1.084       .  S
C1666      C1667   1.406       .  A
C1666      H1675   1.084       .  S
C1667      C1668   1.406       .  A
C1668      H1676   1.084       .  S
C1677      C1678   1.401       .  A
C1677      C1682   1.405       .  A
C1677      H1693   1.083       .  S
C1678      C1679   1.404       .  A
C1678      H1694   1.085       .  S
C1679      C1689   1.405       .  A
C1679      C1680   1.413       .  A
C1680      C1686   1.411       .  A
C1680      C1681   1.414       .  A
C1681      C1683   1.412       .  A
C1681      C1682   1.412       .  A
C1682      C1690   1.407       .  A
C1683      C1692   1.404       .  A
C1683      C1684   1.404       .  A
C1684      C1685   1.400       .  A
C1684      H1695   1.084       .  S
C1685      C1686   1.404       .  A
C1685      H1696   1.083       .  S
C1686      C1687   1.404       .  A
C1687      C1688   1.410       .  A
C1687      H1697   1.083       .  S
C1688      C1689   1.407       .  A
C1689      H1698   1.085       .  S
C1690      C1691   1.405       .  A
C1690      H1699   1.084       .  S
C1691      C1692   1.406       .  A
C1692      H1700   1.085       .  S
C1701      C1702   1.395       .  A
C1701      C1706   1.402       .  A
C1701      H1717   1.084       .  S
C1702      C1703   1.402       .  A
C1702      H1718   1.084       .  S
C1703      C1713   1.395       .  A
C1703      C1704   1.409       .  A
C1704      C1710   1.413       .  A
C1704      C1705   1.413       .  A
C1705      C1707   1.411       .  A
C1705      C1706   1.410       .  A
C1706      C1714   1.397       .  A
C1707      C1716   1.411       .  A
C1707      C1708   1.406       .  A
C1708      C1709   1.404       .  A
C1708      H1719   1.083       .  S
C1709      C1710   1.405       .  A
C1709      H1720   1.083       .  S
C1710      C1711   1.411       .  A
C1711      C1712   1.408       .  A
C1711      H1721   1.084       .  S
C1712      C1713   1.407       .  A
C1713      H1722   1.085       .  S
C1714      C1715   1.407       .  A
C1714      H1723   1.084       .  S
C1715      C1716   1.411       .  A
C1716      H1724   1.084       .  S
C1725      C1726   1.398       .  A
C1725      C1730   1.403       .  A
C1725      H1741   1.084       .  S
C1726      C1727   1.403       .  A
C1726      H1742   1.083       .  S
C1727      C1737   1.404       .  A
C1727      C1728   1.412       .  A
C1728      C1734   1.411       .  A
C1728      C1729   1.415       .  A
C1729      C1731   1.414       .  A
C1729      C1730   1.411       .  A
C1730      C1738   1.401       .  A
C1731      C1740   1.411       .  A
C1731      C1732   1.405       .  A
C1732      C1733   1.403       .  A
C1732      H1743   1.084       .  S
C1733      C1734   1.406       .  A
C1733      H1744   1.083       .  S
C1734      C1735   1.408       .  A
C1735      C1736   1.411       .  A
C1735      H1745   1.084       .  S
C1736      C1737   1.407       .  A
C1737      H1746   1.084       .  S
C1738      C1739   1.406       .  A
C1738      H1747   1.085       .  S
C1739      C1740   1.407       .  A
C1740      H1748   1.084       .  S
C1749      C1750   1.402       .  A
C1749      C1754   1.405       .  A
C1749      H1765   1.083       .  S
C1750      C1751   1.405       .  A
C1750      H1766   1.084       .  S
C1751      C1761   1.408       .  A
C1751      C1752   1.411       .  A
C1752      C1758   1.411       .  A
C1752      C1753   1.415       .  A
C1753      C1755   1.411       .  A
C1753      C1754   1.411       .  A
C1754      C1762   1.408   1_554  A
C1755      C1764   1.403   1_554  A
C1755      C1756   1.403       .  A
C1756      C1757   1.398       .  A
C1756      H1767   1.084       .  S
C1757      C1758   1.404       .  A
C1757      H1768   1.084       .  S
C1758      C1759   1.404       .  A
C1759      C1760   1.410       .  A
C1759      H1769   1.084       .  S
C1760      C1761   1.411       .  A
C1761      H1770   1.084       .  S
C1762      C1763   1.411       .  A
C1762      H1771   1.084       .  S
C1763      C1764   1.409       .  A
C1764      H1772   1.084       .  S
