geometry optimzed in LAMMPS
_audit_creation_date              2020-11-30 
_audit_creation_method            'lammps2cif' 
_symmetry_space_group_name_H-M    'P1' 
_symmetry_Int_Tables_number       1 
_symmetry_cell_setting            triclinic 
loop_ 
_symmetry_equiv_pos_as_xyz 
  x,y,z 
_cell_length_a                    23.64873535 
_cell_length_b                    23.61046258807835 
_cell_length_c                    48.58812777586213 
_cell_angle_alpha                 89.84990802376429 
_cell_angle_beta                  90.09421609341278 
_cell_angle_gamma                 91.56538014843859 
loop_ 
_atom_site_label 
_atom_site_type_symbol 
_atom_site_fract_x 
_atom_site_fract_y 
_atom_site_fract_z 
_atom_site_charge 
C1          C  0.25248322  0.97022223  0.27890673     0.03800
C2          C  0.22132011  0.97698664  0.25475204    -0.12400
C3          C  0.24756934  0.98878662  0.22950432     0.01300
C4          C  0.30705885  0.99377045  0.22865647    -0.10900
C5          C  0.34026273  0.98612176  0.25274082     0.03800
C6          C  0.31171499  0.97357198  0.27776391    -0.10300
H7          H  0.17580707  0.97263924  0.25581843     0.09400
H8          H  0.32681006  0.00467744  0.20924828     0.06900
H9          H  0.33494566  0.96494116  0.29638576     0.06700
C10         C  0.49493647  0.00432927  0.27624889     0.03800
C11         C  0.43549335  0.00318392  0.27629422    -0.12400
C12         C  0.40409788  0.99109493  0.25198749     0.01300
C13         C  0.43448095  0.98285113  0.22722334    -0.10900
C14         C  0.49397873  0.98748915  0.22668295     0.03800
C15         C  0.52326142  0.99769227  0.25129161    -0.10300
H16         H  0.41416636  0.01196146  0.29535238     0.09400
H17         H  0.41242185  0.97160152  0.20847101     0.06900
H18         H  0.56906879  0.99983301  0.25106738     0.06700
C19         C  0.87125352  0.35280483  0.27543431     0.03800
C20         C  0.86880762  0.41205601  0.27532133    -0.12400
C21         C  0.87891089  0.44371707  0.25095342     0.01300
C22         C  0.88874152  0.41382440  0.22622196    -0.10900
C23         C  0.88820506  0.35426436  0.22587305     0.03800
C24         C  0.88074052  0.32466204  0.25065974    -0.10300
H25         H  0.85803396  0.43302465  0.29422983     0.09400
H26         H  0.89771206  0.43637297  0.20731385     0.06900
H27         H  0.88175825  0.27882577  0.25064956     0.06700
C28         C  0.88863159  0.59636121  0.27748077     0.03800
C29         C  0.89034481  0.53709641  0.27642680    -0.12400
C30         C  0.87911585  0.50743666  0.25156495     0.01300
C31         C  0.86806346  0.53931428  0.22747570    -0.10900
C32         C  0.86844733  0.59874033  0.22809544     0.03800
C33         C  0.87835393  0.62635997  0.25320129    -0.10300
H34         H  0.90155821  0.51465918  0.29494153     0.09400
H35         H  0.85810883  0.51853185  0.20821085     0.06900
H36         H  0.87913120  0.67207366  0.25392390     0.06700
O37         O  0.03292729  0.97979905  0.04897994    -0.74600
O38         O  0.96027714  0.97707354  0.07991604    -0.53600
C39         C  0.01309367  0.97931752  0.07372231     0.79100
O40         O  0.87167530  0.13257450  0.45323497    -0.59200
O41         O  0.87590796  0.05942628  0.42273514    -0.52300
C42         C  0.87328632  0.11227000  0.42858416     0.71100
O43         O  0.87891878  0.13417646  0.04841936    -0.73800
O44         O  0.87662580  0.06136366  0.07944428    -0.54400
C45         C  0.87909387  0.11422630  0.07316572     0.77100
O46         O  0.03324079  0.97103492  0.45597861    -0.59000
O47         O  0.96118579  0.97043277  0.42465428    -0.52100
C48         C  0.01377251  0.96926115  0.43120487     0.73700
Zr49       Zr  0.99380181  0.97682537  0.00202741     2.54700
O50         O  0.06930422  0.04906006  0.00086125    -0.79500
O51         O  0.06294323  0.90286991  0.50366459    -0.92900
Zr52       Zr  0.87569823  0.09479930  0.00157482     2.64700
O53         O  0.95450343  0.16312336  0.99965303    -0.97900
O54         O  0.80403314  0.16731359  0.50215690    -0.79900
O55         O  0.93512665  0.03644588  0.02822092    -0.83300
O56         O  0.93550993  0.03600072  0.47504627    -2.18000
O57         O  0.87898902  0.81459130  0.45538083    -0.66700
O58         O  0.87435756  0.88672117  0.42419198    -0.51300
C59         C  0.87837131  0.83412808  0.43058340     0.72100
O60         O  0.71330768  0.97265206  0.04849367    -0.59600
O61         O  0.78622041  0.97466975  0.07936014    -0.51600
C62         C  0.73329590  0.97335613  0.07325430     0.73900
O63         O  0.71443704  0.98081232  0.45375198    -0.71000
O64         O  0.78747014  0.97826338  0.42320180    -0.49700
C65         C  0.73472001  0.98175278  0.42912132     0.75300
O66         O  0.87264266  0.81494136  0.04855737    -0.66300
O67         O  0.86888656  0.88699874  0.07967122    -0.53500
C68         C  0.86978552  0.83421003  0.07326962     0.73600
Zr69       Zr  0.87261302  0.85516143  0.00207868     2.77500
O70         O  0.79326159  0.78741293  0.00100908    -0.97100
O71         O  0.94334341  0.78239962  0.00502435    -0.77900
Zr72       Zr  0.75357507  0.97314227  0.00164085     2.70100
O73         O  0.68560451  0.89392904  0.00008143    -0.79100
O74         O  0.68214267  0.04547800  0.00256686    -0.98200
Zr75       Zr  0.87344493  0.97464945  0.05362381     2.21500
Zr76       Zr  0.87367716  0.97402020  0.44979239     2.11100
O77         O  0.81103114  0.91274430  0.47483180    -2.46900
O78         O  0.81218036  0.91329370  0.02815183    -0.78900
O79         O  0.93289012  0.91456264  0.47584416    -0.71100
O80         O  0.81387018  0.03474884  0.02779900    -2.32100
O81         O  0.93394559  0.91518491  0.02839945    -2.28300
O82         O  0.81384563  0.03464519  0.47464619    -0.72900
H83         H  0.95908612  0.05876073  0.46288628     0.79100
H84         H  0.79135990  0.05759485  0.03977551     0.80200
H85         H  0.78810074  0.88963372  0.46257640     0.82400
H86         H  0.95645288  0.89267288  0.04061351     0.80000
H87         H  0.77468265  0.15384386  0.99055228     0.43100
H88         H  0.68588130  0.06742092  0.48521622     0.42000
H89         H  0.68697290  0.87691822  0.01871130     0.41700
H90         H  0.80910184  0.74985965  0.50580032     0.39600
H91         H  0.97734833  0.80192807  0.50286411     0.42800
H92         H  0.05445778  0.88018057  0.01939023     0.37600
H93         H  0.05429424  0.07976371  0.98927016     0.43700
H94         H  0.93541915  0.20117275  0.50388545     0.40100
H95         H  0.77269030  0.79399120  0.01840964     0.45000
H96         H  0.09864042  0.92060499  0.00476467     0.43700
H97         H  0.97714780  0.15522913  0.01632756     0.43900
H98         H  0.64888970  0.02816719  0.99305605     0.44200
C99         C  0.89988885  0.70120312  0.32831140     0.28900
C100        C  0.89774765  0.75712233  0.33736612    -0.35900
C101        C  0.89279455  0.76456973  0.36569299     0.16400
C102        C  0.89125020  0.72028125  0.38426367     0.22200
C103        C  0.89375150  0.66365926  0.37511878    -0.34000
C104        C  0.89768672  0.65605209  0.34637524     0.16300
O105        O  0.89953189  0.68555614  0.30245837    -0.26100
C106        C  0.89670657  0.62931611  0.30331996     0.06100
C107        C  0.89591977  0.60829913  0.33030188    -0.30900
O108        O  0.88575591  0.73811155  0.40995523    -0.22800
C109        C  0.88340929  0.79436043  0.40740573    -0.02800
C110        C  0.88733960  0.81275902  0.38030412    -0.17200
H111        H  0.89797807  0.79247447  0.32313261     0.20800
H112        H  0.89117225  0.62819894  0.38926094     0.19200
H113        H  0.89135208  0.56476227  0.33712424     0.19100
H114        H  0.88647310  0.85570106  0.37246319     0.15000
C115        C  0.86450895  0.65867302  0.16135324     0.30400
C116        C  0.87344205  0.66218698  0.13270623    -0.35900
C117        C  0.86797398  0.71632565  0.12082139     0.16400
C118        C  0.85472798  0.76327589  0.13616319     0.22200
C119        C  0.84503767  0.75952442  0.16444092    -0.34000
C120        C  0.85041052  0.70591083  0.17617178     0.16300
O121        O  0.87067923  0.61367674  0.17732463    -0.26100
C122        C  0.86035996  0.63278769  0.20264081     0.06100
C123        C  0.84669887  0.68980632  0.20281311    -0.30900
O124        O  0.85387450  0.81009426  0.12149698    -0.22800
C125        C  0.86639336  0.79347609  0.09621009    -0.02800
C126        C  0.87542577  0.73540589  0.09442645    -0.17200
H127        H  0.88509561  0.62578457  0.12069507     0.20800
H128        H  0.83526296  0.79630039  0.17661992     0.19200
H129        H  0.83685719  0.71667842  0.22004517     0.19100
H130        H  0.88673471  0.71117694  0.07647221     0.15000
C131        C  0.86917097  0.22578574  0.38145734     0.30400
C132        C  0.86935174  0.28247474  0.37233969    -0.35900
C133        C  0.86491367  0.29054522  0.34370433     0.16400
C134        C  0.86037392  0.24585694  0.32554295     0.22200
C135        C  0.85997706  0.18960054  0.33458031    -0.34000
C136        C  0.86488648  0.18160690  0.36297218     0.16300
O137        O  0.87310455  0.20786933  0.40720952    -0.26100
C138        C  0.87148159  0.15156670  0.40496618     0.06100
C139        C  0.86670656  0.13310676  0.37787575    -0.30900
O140        O  0.86000535  0.26228316  0.29971871    -0.22800
C141        C  0.86446003  0.31847759  0.30091241    -0.02800
C142        C  0.86724842  0.33861436  0.32792702    -0.17200
H143        H  0.87355042  0.31767032  0.38648604     0.20800
H144        H  0.85721158  0.15441777  0.32035678     0.19200
H145        H  0.86424512  0.09003198  0.37027564     0.19100
H146        H  0.87309396  0.38181047  0.33497128     0.15000
C147        C  0.88742013  0.22838313  0.11966125     0.30400
C148        C  0.88771885  0.28506361  0.12872982    -0.35900
C149        C  0.89212442  0.29314906  0.15739148     0.16400
C150        C  0.89616648  0.24847465  0.17556041     0.22200
C151        C  0.89597466  0.19232840  0.16658506    -0.34000
C152        C  0.89126643  0.18433249  0.13822459     0.16300
O153        O  0.88258526  0.21023759  0.09397453    -0.26100
C154        C  0.88311485  0.15396087  0.09643844     0.06100
C155        C  0.88840458  0.13577685  0.12351275    -0.30900
O156        O  0.89729449  0.26465454  0.20136162    -0.22800
C157        C  0.89388622  0.32072895  0.20022786    -0.02800
C158        C  0.89083580  0.34103019  0.17321209    -0.17200
H159        H  0.88386425  0.32016956  0.11454846     0.20800
H160        H  0.89822032  0.15714273  0.18083868     0.19200
H161        H  0.88986562  0.09279448  0.13126173     0.19100
H162        H  0.88587543  0.38413724  0.16620729     0.15000
C163        C  0.62164156  0.99650279  0.38233537     0.30400
C164        C  0.56513413  0.99901704  0.37321480    -0.35900
C165        C  0.55729864  0.00526971  0.34462293     0.16400
C166        C  0.60202796  0.00924387  0.32649852     0.22200
C167        C  0.65811659  0.00684327  0.33553185    -0.34000
C168        C  0.66585480  0.00004140  0.36387026     0.16300
O169        O  0.63931274  0.98949701  0.40798490    -0.26100
C170        C  0.69550773  0.98819388  0.40566972     0.06100
C171        C  0.71406052  0.99452525  0.37866754    -0.30900
O172        O  0.58566148  0.01186688  0.30068417    -0.22800
C173        C  0.52941346  0.00942385  0.30182844    -0.02800
C174        C  0.50931052  0.00551525  0.32883278    -0.17200
H175        H  0.52983121  0.99521532  0.38730177     0.20800
H176        H  0.69333378  0.00877600  0.32132546     0.19200
H177        H  0.75705880  0.99504384  0.37103097     0.19100
H178        H  0.46607068  0.00059460  0.33585089     0.15000
C179        C  0.61975201  0.97513191  0.12041303     0.30400
C180        C  0.56342599  0.97877007  0.12960397    -0.35900
C181        C  0.55549840  0.97846357  0.15835116     0.16400
C182        C  0.60001348  0.97491901  0.17657282     0.22200
C183        C  0.65592127  0.97137801  0.16749482    -0.34000
C184        C  0.66373597  0.97164760  0.13897268     0.16300
O185        O  0.63758032  0.97566559  0.09455093    -0.26100
C186        C  0.69368866  0.97265602  0.09680161     0.06100
C187        C  0.71196983  0.96996199  0.12399395    -0.30900
O188        O  0.58381777  0.97654356  0.20239903    -0.22800
C189        C  0.52788489  0.98109670  0.20116210    -0.02800
C190        C  0.50777427  0.98242575  0.17411264    -0.17200
H191        H  0.52838784  0.98208246  0.11539462     0.20800
H192        H  0.69104344  0.96912614  0.18173869     0.19200
H193        H  0.75487733  0.96770215  0.13165076     0.19100
H194        H  0.46477342  0.98715083  0.16702144     0.15000
C195        C  0.14993880  0.94910550  0.33004968     0.30400
C196        C  0.09449067  0.94060669  0.33936108    -0.35900
C197        C  0.08545088  0.95151514  0.36719779     0.16400
C198        C  0.12792866  0.96933817  0.38493209     0.22200
C199        C  0.18382855  0.97786051  0.37553186    -0.34000
C200        C  0.19298443  0.96689428  0.34744794     0.16300
O201        O  0.16630417  0.94529143  0.30436176    -0.26100
C202        C  0.22079252  0.96068406  0.30488051     0.06100
C203        C  0.24003663  0.97410549  0.33132233    -0.30900
O204        O  0.10904153  0.97761705  0.41018143    -0.22800
C205        C  0.05385107  0.96511683  0.40826976    -0.02800
C206        C  0.03704779  0.94871906  0.38201366    -0.17200
H207        H  0.06041704  0.92765710  0.32565667     0.20800
H208        H  0.21746616  0.99291887  0.38899239     0.19200
H209        H  0.28130987  0.99050011  0.33747228     0.19100
H210        H  0.99504627  0.93657179  0.37487927     0.15000
C211        C  0.08097978  0.99150693  0.13766511     0.30400
C212        C  0.08362671  0.99939124  0.16618091    -0.35900
C213        C  0.13765799  0.99854689  0.17796487     0.16400
C214        C  0.18609716  0.99022969  0.16295446     0.22200
C215        C  0.18352128  0.98318990  0.13418092    -0.34000
C216        C  0.12919271  0.98422686  0.12225213     0.16300
O217        O  0.03454844  0.99005699  0.12267815    -0.26100
C218        C  0.05281393  0.98225773  0.09713256     0.06100
C219        C  0.11146670  0.97828888  0.09555718    -0.30900
O220        O  0.23170645  0.98762937  0.17875612    -0.22800
C221        C  0.21204678  0.99439568  0.20425373    -0.02800
C222        C  0.15371404  0.00225911  0.20468045    -0.17200
H223        H  0.04598158  0.00495080  0.17842079     0.20800
H224        H  0.22103205  0.97646526  0.12202710     0.19200
H225        H  0.13711397  0.97185393  0.07746443     0.19100
H226        H  0.12610795  0.00847584  0.22206874     0.15000
C227        C  0.25117422  0.97087904  0.77818152     0.03800
C228        C  0.22004429  0.97876667  0.75413602    -0.12400
C229        C  0.24643124  0.99043695  0.72896823     0.01300
C230        C  0.30594768  0.99437208  0.72807030    -0.10900
C231        C  0.33910831  0.98493338  0.75203927     0.03800
C232        C  0.31032543  0.97220870  0.77695303    -0.10300
H233        H  0.17444809  0.97536543  0.75517687     0.09400
H234        H  0.32556902  0.00573886  0.70870311     0.06900
H235        H  0.33309423  0.96193011  0.79547896     0.06700
C236        C  0.49428357  0.99744445  0.77580778     0.03800
C237        C  0.43484317  0.99662737  0.77593493    -0.12400
C238        C  0.40301624  0.98844867  0.75135392     0.01300
C239        C  0.43299926  0.98352389  0.72627844    -0.10900
C240        C  0.49235532  0.98837499  0.72563076     0.03800
C241        C  0.52216837  0.99439844  0.75050565    -0.10300
H242        H  0.41395861  0.00318170  0.79530257     0.09400
H243        H  0.41077838  0.97526111  0.70724754     0.06900
H244        H  0.56796662  0.99650480  0.75021488     0.06700
C245        C  0.87362903  0.35287337  0.77601527     0.03800
C246        C  0.87045877  0.41215282  0.77605510    -0.12400
C247        C  0.87667260  0.44409752  0.75144082     0.01300
C248        C  0.88299334  0.41404290  0.72640375    -0.10900
C249        C  0.88320027  0.35449778  0.72596870     0.03800
C250        C  0.87962964  0.32481550  0.75090761    -0.10300
H251        H  0.86227327  0.43270362  0.79535452     0.09400
H252        H  0.88936287  0.43627056  0.70721100     0.06900
H253        H  0.88113460  0.27900672  0.75075871     0.06700
C254        C  0.88889710  0.59755746  0.77760776     0.03800
C255        C  0.88837200  0.53812983  0.77689208    -0.12400
C256        C  0.87753125  0.50814214  0.75203407     0.01300
C257        C  0.86792003  0.54021232  0.72779256    -0.10900
C258        C  0.87059834  0.59965900  0.72813610     0.03800
C259        C  0.88178899  0.62742627  0.75305780    -0.10300
H260        H  0.89776893  0.51608530  0.79572750     0.09400
H261        H  0.85715352  0.51981131  0.70856173     0.06900
H262        H  0.88495835  0.67312928  0.75352752     0.06700
O263        O  0.03045409  0.97943393  0.54943793    -0.74600
O264        O  0.95755417  0.97936307  0.58018813    -0.53600
C265        C  0.01041482  0.98097993  0.57411114     0.79100
O266        O  0.87284208  0.13378669  0.95452625    -0.59200
O267        O  0.87425664  0.06062722  0.92393622    -0.52300
C268        C  0.87312447  0.11349237  0.92988398     0.71100
O269        O  0.87786624  0.13537334  0.54742912    -0.73800
O270        O  0.87558315  0.06264207  0.57850788    -0.54400
C271        C  0.87779779  0.11554554  0.57221377     0.77100
O272        O  0.03303146  0.97533818  0.95525199    -0.59000
O273        O  0.96024181  0.97231887  0.92432215    -0.52100
C274        C  0.01306283  0.97273656  0.93056968     0.73700
Zr275      Zr  0.99256907  0.97606123  0.50225759     2.54700
O276        O  0.06526377  0.05097075  0.50010958    -0.79500
O277        O  0.06148688  0.90103520  0.00198865    -0.92900
Zr278      Zr  0.87534991  0.09503034  0.50070625     2.64700
O279        O  0.95289587  0.16500522  0.49887815    -0.97900
O280        O  0.80506018  0.16777529  0.00305300    -0.79900
O281        O  0.93386181  0.03647617  0.52786682    -0.83300
O282        O  0.93547477  0.03648618  0.97538430    -2.18000
O283        O  0.88175452  0.81535443  0.95568981    -0.66700
O284        O  0.87455735  0.88744897  0.92461222    -0.51300
C285        C  0.88023821  0.83505229  0.93093084     0.72100
O286        O  0.71217346  0.97290552  0.54745829    -0.59600
O287        O  0.78436942  0.97475265  0.57869968    -0.51600
C288        C  0.73159432  0.97381429  0.57230227     0.73900
O289        O  0.71408220  0.98029104  0.95471134    -0.71000
O290        O  0.78683800  0.97850654  0.92398035    -0.49700
C291        C  0.73406075  0.98141928  0.92999079     0.75300
O292        O  0.86902989  0.81491529  0.54827978    -0.66300
O293        O  0.86805375  0.88735566  0.57928903    -0.53500
C294        C  0.86791712  0.83446564  0.57298544     0.73600
Zr295      Zr  0.87063008  0.85483748  0.50174609     2.77500
O296        O  0.79242115  0.78585383  0.49978295    -0.97100
O297        O  0.94053348  0.78132531  0.50476604    -0.77900
Zr298      Zr  0.75283381  0.97356529  0.50073651     2.70100
O299        O  0.68340782  0.89579483  0.49783334    -0.79100
O300        O  0.67978483  0.04423058  0.50200226    -0.98200
Zr301      Zr  0.87171227  0.97501184  0.55316571     2.21500
Zr302      Zr  0.87352562  0.97450588  0.95027523     2.11100
O303        O  0.81188610  0.91270800  0.97550951    -2.46900
O304        O  0.81029853  0.91347708  0.52765473    -0.78900
O305        O  0.93383346  0.91529639  0.97583077    -0.71100
O306        O  0.81298858  0.03529888  0.52690909    -2.32100
O307        O  0.93200804  0.91462977  0.52831220    -2.28300
O308        O  0.81401282  0.03456396  0.97551663    -0.72900
H309        H  0.95850729  0.05959519  0.96314514     0.79100
H310        H  0.79038556  0.05827770  0.53877804     0.80200
H311        H  0.78894213  0.88944176  0.96332570     0.82400
H312        H  0.95420847  0.89212141  0.54066608     0.80000
H313        H  0.76758919  0.14567716  0.50257638     0.43100
H314        H  0.69648234  0.07513210  0.98972757     0.42000
H315        H  0.68698759  0.87529216  0.51552173     0.41700
H316        H  0.81066230  0.75012933  0.00361914     0.39600
H317        H  0.97687259  0.79919456  0.99555895     0.42800
H318        H  0.05375982  0.88039224  0.52036194     0.37600
H319        H  0.05208287  0.08035232  0.51290211     0.43700
H320        H  0.93727326  0.20006041  0.00336235     0.40100
H321        H  0.76736168  0.79640841  0.51514476     0.45000
H322        H  0.09876939  0.92346469  0.50824682     0.43700
H323        H  0.97706605  0.15588956  0.51486584     0.43900
H324        H  0.64408609  0.02252243  0.49843933     0.44200
C325        C  0.89960462  0.70264809  0.82843478     0.28900
C326        C  0.90087031  0.75867829  0.83760605    -0.35900
C327        C  0.89553613  0.76614973  0.86594747     0.16400
C328        C  0.88993682  0.72171090  0.88432605     0.22200
C329        C  0.88856153  0.66515381  0.87504845    -0.34000
C330        C  0.89341605  0.65759319  0.84639137     0.16300
O331        O  0.90091136  0.68690003  0.80258696    -0.26100
C332        C  0.89538969  0.63072838  0.80345528     0.06100
C333        C  0.89066535  0.60993420  0.83036155    -0.30900
O334        O  0.88441132  0.73937372  0.91000607    -0.22800
C335        C  0.88602887  0.79571971  0.90770200    -0.02800
C336        C  0.89295901  0.81443890  0.88076276    -0.17200
H337        H  0.90445153  0.79414076  0.82349032     0.20800
H338        H  0.88296767  0.62974915  0.88906009     0.19200
H339        H  0.88363663  0.56663385  0.83713467     0.19100
H340        H  0.89522116  0.85758916  0.87314883     0.15000
C341        C  0.86538910  0.65937220  0.66136218     0.30400
C342        C  0.87341395  0.66272830  0.63264462    -0.35900
C343        C  0.86887731  0.71705879  0.62082842     0.16400
C344        C  0.85758646  0.76436861  0.63631461     0.22200
C345        C  0.84889045  0.76081530  0.66467145    -0.34000
C346        C  0.85298457  0.70696921  0.67630228     0.16300
O347        O  0.87112128  0.61421499  0.67728595    -0.26100
C348        C  0.86229946  0.63365256  0.70268527     0.06100
C349        C  0.84971079  0.69093222  0.70294952    -0.30900
O350        O  0.85619848  0.81107877  0.62158267    -0.22800
C351        C  0.86615078  0.79400989  0.59608572    -0.02800
C352        C  0.87442537  0.73579757  0.59426865    -0.17200
H353        H  0.88342091  0.62598558  0.62049748     0.20800
H354        H  0.84038497  0.79780735  0.67694581     0.19200
H355        H  0.84107698  0.71804292  0.72025975     0.19100
H356        H  0.88351137  0.71115609  0.57613035     0.15000
C357        C  0.87260064  0.22662104  0.88257325     0.30400
C358        C  0.87433038  0.28316967  0.87325903    -0.35900
C359        C  0.87183456  0.29086871  0.84453719     0.16400
C360        C  0.86795651  0.24598795  0.82646725     0.22200
C361        C  0.86626179  0.18986017  0.83569207    -0.34000
C362        C  0.86878934  0.18224847  0.86417535     0.16300
O363        O  0.87455346  0.20899221  0.90843164    -0.26100
C364        C  0.87203129  0.15269760  0.90630196     0.06100
C365        C  0.86845501  0.13395661  0.87923893    -0.30900
O366        O  0.86729980  0.26216537  0.80059765    -0.22800
C367        C  0.87068917  0.31843380  0.80166095    -0.02800
C368        C  0.87361408  0.33878560  0.82865141    -0.17200
H369        H  0.87766864  0.31853062  0.88734702     0.20800
H370        H  0.86354845  0.15448341  0.82157991     0.19200
H371        H  0.86592070  0.09080750  0.87173755     0.19100
H372        H  0.87776774  0.38214299  0.83566650     0.15000
C373        C  0.87932744  0.22932198  0.61922971     0.30400
C374        C  0.87525018  0.28555197  0.62863033    -0.35900
C375        C  0.88210312  0.29377337  0.65720274     0.16400
C376        C  0.89222347  0.24963841  0.67502383     0.22200
C377        C  0.89603516  0.19388215  0.66573372    -0.34000
C378        C  0.88905601  0.18573928  0.63744908     0.16300
O379        O  0.87431157  0.21121293  0.59350928    -0.26100
C380        C  0.88068406  0.15535602  0.59558672     0.06100
C381        C  0.88979828  0.13747557  0.62247006    -0.30900
O382        O  0.89538759  0.26575333  0.70084862    -0.22800
C383        C  0.88720531  0.32125404  0.70007224    -0.02800
C384        C  0.87887330  0.34121209  0.67326677    -0.17200
H385        H  0.86688717  0.32024408  0.61474073     0.20800
H386        H  0.90331535  0.15903338  0.67970360     0.19200
H387        H  0.89622718  0.09485627  0.62991088     0.19100
H388        H  0.86964557  0.38373430  0.66660869     0.15000
C389        C  0.62058666  0.99089939  0.88270326     0.30400
C390        C  0.56407049  0.99133738  0.87329980    -0.35900
C391        C  0.55643222  0.99652165  0.84458370     0.16400
C392        C  0.60130494  0.00076746  0.82656216     0.22200
C393        C  0.65736153  0.00069454  0.83589746    -0.34000
C394        C  0.66493321  0.99562816  0.86436981     0.16300
O395        O  0.63821379  0.98548422  0.90851041    -0.26100
C396        C  0.69457610  0.98672940  0.90644336     0.06100
C397        C  0.71316826  0.99317036  0.87943652    -0.30900
O398        O  0.58520396  0.00292516  0.80063248    -0.22800
C399        C  0.52890187  0.00027836  0.80157542    -0.02800
C400        C  0.50861504  0.99646399  0.82859785    -0.17200
H401        H  0.52863669  0.98725383  0.88729684     0.20800
H402        H  0.69278307  0.00359722  0.82183806     0.19200
H403        H  0.75626202  0.99538931  0.87193699     0.19100
H404        H  0.46528453  0.99234673  0.83556444     0.15000
C405        C  0.61709182  0.97940315  0.61879480     0.30400
C406        C  0.56050179  0.98236735  0.62787745    -0.35900
C407        C  0.55261601  0.98465565  0.65666180     0.16400
C408        C  0.59747153  0.98465050  0.67482462     0.22200
C409        C  0.65333140  0.98206121  0.66584834    -0.34000
C410        C  0.66107559  0.97909031  0.63746059     0.16300
O411        O  0.63524937  0.97680662  0.59301729    -0.26100
C412        C  0.69143700  0.97471624  0.59556917     0.06100
C413        C  0.70942657  0.97575873  0.62279495    -0.30900
O414        O  0.58167491  0.98600989  0.70064433    -0.22800
C415        C  0.52558262  0.98661387  0.69967920    -0.02800
C416        C  0.50483258  0.98607027  0.67263967    -0.17200
H417        H  0.52530382  0.98237530  0.61361500     0.20800
H418        H  0.68848263  0.98176639  0.68013986     0.19200
H419        H  0.75224947  0.97495834  0.63068306     0.19100
H420        H  0.46135980  0.98646321  0.66568942     0.15000
C421        C  0.14882020  0.95105422  0.82933509     0.30400
C422        C  0.09330403  0.94342094  0.83862055    -0.35900
C423        C  0.08446904  0.95418911  0.86646999     0.16400
C424        C  0.12729293  0.97075796  0.88427524     0.22200
C425        C  0.18341437  0.97797855  0.87493919    -0.34000
C426        C  0.19227886  0.96754334  0.84678218     0.16300
O427        O  0.16487246  0.94767294  0.80361348    -0.26100
C428        C  0.21957524  0.96193016  0.80414190     0.06100
C429        C  0.23931540  0.97439594  0.83061041    -0.30900
O430        O  0.10843871  0.97962746  0.90948109    -0.22800
C431        C  0.05292211  0.96885437  0.90747054    -0.02800
C432        C  0.03589448  0.95290086  0.88117739    -0.17200
H433        H  0.05898492  0.93158665  0.82483950     0.20800
H434        H  0.21735137  0.99206296  0.88845990     0.19200
H435        H  0.28093877  0.98984324  0.83676108     0.19100
H436        H  0.99367963  0.94188112  0.87395158     0.15000
C437        C  0.07928482  0.99872069  0.63759374     0.30400
C438        C  0.08269354  0.00817163  0.66600325    -0.35900
C439        C  0.13660995  0.00436607  0.67774693     0.16400
C440        C  0.18416683  0.99213730  0.66275760     0.22200
C441        C  0.18088686  0.98369467  0.63413736    -0.34000
C442        C  0.12677598  0.98748507  0.62228636     0.16300
O443        O  0.03263832  0.99770457  0.62272356    -0.26100
C444        C  0.05020758  0.98602308  0.59741448     0.06100
C445        C  0.10850876  0.97952229  0.59584898    -0.30900
O446        O  0.22965973  0.98745520  0.67843934    -0.22800
C447        C  0.21091485  0.99689839  0.70385039    -0.02800
C448        C  0.15326579  0.00831707  0.70438473    -0.17200
H449        H  0.04562396  0.01653399  0.67822826     0.20800
H450        H  0.21764415  0.97353860  0.62206958     0.19200
H451        H  0.13349829  0.96931894  0.57798481     0.19100
H452        H  0.12657830  0.01711710  0.72183194     0.15000
loop_ 
_geom_bond_atom_site_label_1 
_geom_bond_atom_site_label_2 
_geom_bond_distance 
_geom_bond_site_symmetry_2 
_ccdc_geom_bond_type 
C1            C2   1.396       .  A
C1            C6   1.402       .  A
C1          C202   1.482       .  S
C2            C3   1.400       .  A
C2            H7   1.080       .  S
C3            C4   1.409       .  A
C3          C221   1.493       .  S
C4            C5   1.422       .  A
C4            H8   1.080   1_565  S
C5            C6   1.418       .  A
C5           C12   1.511       .  S
C6            H9   1.080       .  S
C10          C11   1.405       .  A
C10          C15   1.398   1_545  A
C10         C173   1.489       .  S
C11          C12   1.419   1_545  A
C11          H16   1.078       .  S
C12          C13   1.419       .  A
C13          C14   1.409       .  A
C13          H17   1.079       .  S
C14          C15   1.399       .  A
C14         C189   1.488       .  S
C15          H18   1.083       .  S
C19          C20   1.402       .  A
C19          C24   1.398       .  A
C19         C141   1.484       .  S
C20          C21   1.416       .  A
C20          H25   1.079       .  S
C21          C22   1.418       .  A
C21          C30   1.505       .  S
C22          C23   1.406       .  A
C22          H26   1.079       .  S
C23          C24   1.400       .  A
C23         C157   1.486       .  S
C24          H27   1.083       .  S
C28          C29   1.402       .  A
C28          C33   1.399       .  A
C28         C106   1.488       .  S
C29          C30   1.419       .  A
C29          H34   1.079       .  S
C30          C31   1.418       .  A
C31          C32   1.403       .  A
C31          H35   1.081       .  S
C32          C33   1.401       .  A
C32         C122   1.488       .  S
C33          H36   1.080       .  S
O37         Zr49   2.461   1_455  S
O37          C39   1.291       .  A
O38         Zr75   2.416       .  S
O38          C39   1.285   1_655  A
C39         C218   1.475       .  S
O40        Zr278   2.471       .  S
O40          C42   1.292       .  A
O41         Zr76   2.404   1_545  S
O41          C42   1.284       .  A
C42         C138   1.475       .  S
O43         Zr52   2.461       .  S
O43          C45   1.290       .  A
O44         Zr75   2.403   1_545  S
O44          C45   1.284       .  A
C45         C154   1.472       .  S
O46        Zr275   2.452   1_455  S
O46          C48   1.288       .  A
O47         Zr76   2.408       .  S
O47          C48   1.284   1_655  A
C48         C205   1.469       .  S
Zr49        O272   2.457   1_654  S
Zr49         O50   2.436   1_665  S
Zr49        O277   2.433   1_655  S
Zr49         O55   2.377   1_565  S
Zr49         O81   2.376       .  S
Zr49        O282   2.378   1_564  S
Zr49        O305   2.373   1_554  S
O50          H93   0.990   1_554  S
O51        Zr275   2.432   1_455  S
O51         H318   0.989       .  S
O51         H322   0.991       .  S
Zr52        O266   2.464   1_554  S
Zr52         O53   2.433   1_554  S
Zr52        O280   2.434       .  S
Zr52         O55   2.375       .  S
Zr52         O80   2.378       .  S
Zr52        O282   2.374   1_554  S
Zr52        O308   2.376   1_554  S
O53          H97   0.991   1_556  S
O53         H320   0.990   1_556  S
O54        Zr278   2.433       .  S
O54         H313   0.990       .  S
O55         Zr75   2.379   1_545  S
O56         Zr76   2.382   1_545  S
O56        Zr275   2.379   1_545  S
O56        Zr278   2.376       .  S
O56          H83   0.965       .  S
O57        Zr295   2.458       .  S
O57          C59   1.289       .  A
O58         Zr76   2.411       .  S
O58          C59   1.285       .  A
C59         C109   1.475       .  S
O60         Zr72   2.469       .  S
O60          C62   1.292       .  A
O61         Zr75   2.414       .  S
O61          C62   1.285       .  A
C62         C186   1.480       .  S
O63        Zr298   2.463       .  S
O63          C65   1.290       .  A
O64         Zr76   2.416       .  S
O64          C65   1.286       .  A
C65         C170   1.478       .  S
O66         Zr69   2.448       .  S
O66          C68   1.288       .  A
O67         Zr75   2.423       .  S
O67          C68   1.286       .  A
C68         C125   1.471       .  S
Zr69        O283   2.456   1_554  S
Zr69         O70   2.433       .  S
Zr69         O71   2.434       .  S
Zr69         O78   2.378       .  S
Zr69         O81   2.375       .  S
Zr69        O303   2.380   1_554  S
Zr69        O305   2.371   1_554  S
O70          H95   0.991       .  S
O70         H316   0.990       .  S
O71         H317   0.990   1_554  S
Zr72        O289   2.470   1_554  S
Zr72         O73   2.434       .  S
Zr72         O74   2.435   1_565  S
Zr72         O78   2.381       .  S
Zr72         O80   2.378   1_565  S
Zr72        O303   2.382   1_554  S
Zr72        O308   2.375   1_564  S
O73          H89   0.990       .  S
O74          H98   0.991   1_554  S
O74         H314   0.990   1_554  S
Zr75         O78   2.370       .  S
Zr75         O80   2.381   1_565  S
Zr75         O81   2.376       .  S
Zr76         O77   2.376       .  S
Zr76         O79   2.372       .  S
Zr76         O82   2.374   1_565  S
O77        Zr295   2.378       .  S
O77        Zr298   2.380       .  S
O77          H85   0.965       .  S
O79        Zr275   2.375       .  S
O79        Zr295   2.371       .  S
O80          H84   0.965       .  S
O81          H86   0.965       .  S
O82        Zr278   2.375       .  S
O82        Zr298   2.377   1_545  S
H87         O280   0.990   1_556  S
H88         O300   0.990       .  S
H90         O296   0.990       .  S
H91         O297   0.990       .  S
H92         O277   0.989       .  S
H94         O279   0.990       .  S
H96         O277   0.991       .  S
C99         C104   1.379       .  A
C99         C100   1.395       .  A
C99         O105   1.310       .  A
C100        C101   1.394       .  A
C100        H111   1.082       .  S
C101        C110   1.352       .  A
C101        C102   1.379       .  A
C102        C103   1.413       .  A
C102        O108   1.326       .  A
C103        C104   1.412       .  A
C103        H112   1.082       .  S
C104        C107   1.373       .  A
O105        C106   1.328       .  A
C106        C107   1.401       .  A
C107        H113   1.082       .  S
O108        C109   1.336       .  A
C109        C110   1.388       .  A
C110        H114   1.083       .  S
C115        C120   1.378       .  A
C115        C116   1.410       .  A
C115        O121   1.325       .  A
C116        C117   1.410       .  A
C116        H127   1.082       .  S
C117        C126   1.368       .  A
C117        C118   1.381       .  A
C118        C119   1.396       .  A
C118        O124   1.314       .  A
C119        C120   1.396       .  A
C119        H128   1.082       .  S
C120        C123   1.351       .  A
O121        C122   1.336       .  A
C122        C123   1.393       .  A
C123        H129   1.081       .  S
O124        C125   1.327       .  A
C125        C126   1.396       .  A
C126        H130   1.082       .  S
C131        C136   1.380       .  A
C131        C132   1.409       .  A
C131        O137   1.324       .  A
C132        C133   1.408       .  A
C132        H143   1.082       .  S
C133        C142   1.368       .  A
C133        C134   1.379       .  A
C134        C135   1.398       .  A
C134        O140   1.312       .  A
C135        C136   1.397       .  A
C135        H144   1.083       .  S
C136        C139   1.355       .  A
O137        C138   1.334       .  A
C138        C139   1.391       .  A
C139        H145   1.083       .  S
O140        C141   1.329       .  A
C141        C142   1.398       .  A
C142        H146   1.082       .  S
C147        C152   1.380       .  A
C147        C148   1.410       .  A
C147        O153   1.324       .  A
C148        C149   1.409       .  A
C148        H159   1.082       .  S
C149        C158   1.370       .  A
C149        C150   1.379       .  A
C150        C151   1.397       .  A
C150        O156   1.312       .  A
C151        C152   1.395       .  A
C151        H160   1.083       .  S
C152        C155   1.353       .  A
O153        C154   1.334       .  A
C154        C155   1.389       .  A
C155        H161   1.083       .  S
O156        C157   1.330       .  A
C157        C158   1.399       .  A
C158        H162   1.082       .  S
C163        C168   1.380   1_565  A
C163        C164   1.410       .  A
C163        O169   1.325       .  A
C164        C165   1.409   1_565  A
C164        H175   1.082       .  S
C165        C174   1.369       .  A
C165        C166   1.379       .  A
C166        C167   1.399       .  A
C166        O172   1.314       .  A
C167        C168   1.398       .  A
C167        H176   1.083       .  S
C168        C171   1.356   1_545  A
O169        C170   1.335       .  A
C170        C171   1.390       .  A
C171        H177   1.083       .  S
O172        C173   1.331       .  A
C173        C174   1.398       .  A
C174        H178   1.082       .  S
C179        C184   1.380       .  A
C179        C180   1.411       .  A
C179        O185   1.326       .  A
C180        C181   1.410       .  A
C180        H191   1.082       .  S
C181        C190   1.370       .  A
C181        C182   1.379       .  A
C182        C183   1.399       .  A
C182        O188   1.314       .  A
C183        C184   1.398       .  A
C183        H192   1.083       .  S
C184        C187   1.356       .  A
O185        C186   1.335       .  A
C186        C187   1.391       .  A
C187        H193   1.083       .  S
O188        C189   1.331       .  A
C189        C190   1.398       .  A
C190        H194   1.082       .  S
C195        C200   1.379       .  A
C195        C196   1.397       .  A
C195        O201   1.311       .  A
C196        C197   1.395       .  A
C196        H207   1.083       .  S
C197        C206   1.353       .  A
C197        C198   1.380       .  A
C198        C199   1.408       .  A
C198        O204   1.323       .  A
C199        C200   1.408       .  A
C199        H208   1.082       .  S
C200        C203   1.369       .  A
O201        C202   1.329       .  A
C202        C203   1.397       .  A
C203        H209   1.082       .  S
O204        C205   1.333       .  A
C205        C206   1.388       .  A
C206        H210   1.083   1_455  S
C211        C216   1.380       .  A
C211        C212   1.400       .  A
C211        O217   1.316       .  A
C212        C213   1.400       .  A
C212        H223   1.083   1_565  S
C213        C222   1.354   1_565  A
C213        C214   1.378       .  A
C214        C215   1.409       .  A
C214        O220   1.326       .  A
C215        C216   1.409       .  A
C215        H224   1.082       .  S
C216        C219   1.369       .  A
O217        C218   1.330       .  A
C218        C219   1.395       .  A
C219        H225   1.082       .  S
O220        C221   1.335       .  A
C221        C222   1.397   1_565  A
C222        H226   1.081       .  S
C227        C228   1.395       .  A
C227        C232   1.400       .  A
C227        C428   1.479       .  S
C228        C229   1.397       .  A
C228        H233   1.080       .  S
C229        C230   1.409       .  A
C229        C447   1.490       .  S
C230        C231   1.423       .  A
C230        H234   1.080   1_565  S
C231        C232   1.417       .  A
C231        C238   1.512       .  S
C232        H235   1.079       .  S
C236        C237   1.405       .  A
C236        C241   1.399       .  A
C236        C399   1.495   1_565  S
C237        C238   1.421       .  A
C237        H242   1.077   1_565  S
C238        C239   1.417       .  A
C239        C240   1.406       .  A
C239        H243   1.078       .  S
C240        C241   1.404       .  A
C240        C415   1.488       .  S
C241        H244   1.083       .  S
C245        C246   1.404       .  A
C245        C250   1.399       .  A
C245        C367   1.487       .  S
C246        C247   1.418       .  A
C246        H251   1.077       .  S
C247        C248   1.420       .  A
C247        C256   1.512       .  S
C248        C249   1.406       .  A
C248        H252   1.078       .  S
C249        C250   1.400       .  A
C249        C383   1.489       .  S
C250        H253   1.083       .  S
C254        C255   1.403       .  A
C254        C259   1.396       .  A
C254        C332   1.487       .  S
C255        C256   1.421       .  A
C255        H260   1.077       .  S
C256        C257   1.420       .  A
C257        C258   1.403       .  A
C257        H261   1.079       .  S
C258        C259   1.400       .  A
C258        C348   1.488       .  S
C259        H262   1.080       .  S
O263       Zr275   2.461   1_455  S
O263        C265   1.291       .  A
O264       Zr301   2.416       .  S
O264        C265   1.284   1_655  A
C265        C444   1.474       .  S
O266        C268   1.291       .  A
O267       Zr302   2.399   1_545  S
O267        C268   1.283       .  A
C268        C364   1.472       .  S
O269       Zr278   2.464       .  S
O269        C271   1.291       .  A
O270       Zr301   2.410   1_545  S
O270        C271   1.285       .  A
C271        C380   1.476       .  S
O272        C274   1.289       .  A
O273       Zr302   2.411       .  S
O273        C274   1.285   1_655  A
C274        C431   1.472       .  S
Zr275       O276   2.435   1_665  S
Zr275       O281   2.374   1_565  S
Zr275       O307   2.375       .  S
O276        H319   0.990       .  S
Zr278       O279   2.436       .  S
Zr278       O281   2.378       .  S
Zr278       O306   2.381       .  S
O279        H323   0.990       .  S
O281       Zr301   2.378   1_545  S
O282       Zr302   2.380   1_545  S
O282        H309   0.965       .  S
O283        C285   1.289       .  A
O284       Zr302   2.408       .  S
O284        C285   1.284       .  A
C285        C335   1.472       .  S
O286       Zr298   2.467       .  S
O286        C288   1.291       .  A
O287       Zr301   2.411       .  S
O287        C288   1.285       .  A
C288        C412   1.478       .  S
O289        C291   1.291       .  A
O290       Zr302   2.418       .  S
O290        C291   1.286       .  A
C291        C396   1.483       .  S
O292       Zr295   2.447       .  S
O292        C294   1.288       .  A
O293       Zr301   2.425       .  S
O293        C294   1.286       .  A
C294        C351   1.472       .  S
Zr295       O296   2.433       .  S
Zr295       O297   2.433       .  S
Zr295       O304   2.379       .  S
Zr295       O307   2.379       .  S
O296        H321   0.990       .  S
Zr298       O299   2.434       .  S
Zr298       O300   2.435   1_565  S
Zr298       O304   2.379       .  S
Zr298       O306   2.378   1_565  S
O299        H315   0.990       .  S
O300        H324   0.991       .  S
Zr301       O304   2.376       .  S
Zr301       O306   2.382   1_565  S
Zr301       O307   2.377       .  S
Zr302       O303   2.374       .  S
Zr302       O305   2.372       .  S
Zr302       O308   2.371   1_565  S
O303        H311   0.965       .  S
O306        H310   0.965       .  S
O307        H312   0.965       .  S
C325        C330   1.379       .  A
C325        C326   1.397       .  A
C325        O331   1.311       .  A
C326        C327   1.395       .  A
C326        H337   1.083       .  S
C327        C336   1.353       .  A
C327        C328   1.380       .  A
C328        C329   1.410       .  A
C328        O334   1.324       .  A
C329        C330   1.410       .  A
C329        H338   1.082       .  S
C330        C333   1.370       .  A
O331        C332   1.330       .  A
C332        C333   1.399       .  A
C333        H339   1.082       .  S
O334        C335   1.334       .  A
C335        C336   1.389       .  A
C336        H340   1.083       .  S
C341        C346   1.378       .  A
C341        C342   1.410       .  A
C341        O347   1.326       .  A
C342        C343   1.411       .  A
C342        H353   1.082       .  S
C343        C352   1.368       .  A
C343        C344   1.381       .  A
C344        C345   1.395       .  A
C344        O350   1.314       .  A
C345        C346   1.396       .  A
C345        H354   1.082       .  S
C346        C349   1.350       .  A
O347        C348   1.336       .  A
C348        C349   1.393       .  A
C349        H355   1.081       .  S
O350        C351   1.327       .  A
C351        C352   1.397       .  A
C352        H356   1.082       .  S
C357        C362   1.380       .  A
C357        C358   1.408       .  A
C357        O363   1.324       .  A
C358        C359   1.408       .  A
C358        H369   1.082       .  S
C359        C368   1.368       .  A
C359        C360   1.379       .  A
C360        C361   1.397       .  A
C360        O366   1.313       .  A
C361        C362   1.396       .  A
C361        H370   1.083       .  S
C362        C365   1.353       .  A
O363        C364   1.333       .  A
C364        C365   1.390       .  A
C365        H371   1.083       .  S
O366        C367   1.330       .  A
C367        C368   1.399       .  A
C368        H372   1.082       .  S
C373        C378   1.379       .  A
C373        C374   1.411       .  A
C373        O379   1.326       .  A
C374        C375   1.411       .  A
C374        H385   1.082       .  S
C375        C384   1.371       .  A
C375        C376   1.379       .  A
C376        C377   1.398       .  A
C376        O382   1.314       .  A
C377        C378   1.397       .  A
C377        H386   1.082       .  S
C378        C381   1.354       .  A
O379        C380   1.335       .  A
C380        C381   1.390       .  A
C381        H387   1.083       .  S
O382        C383   1.330       .  A
C383        C384   1.399       .  A
C384        H388   1.082       .  S
C389        C394   1.379       .  A
C389        C390   1.412       .  A
C389        O395   1.328       .  A
C390        C391   1.412       .  A
C390        H401   1.082       .  S
C391        C400   1.371       .  A
C391        C392   1.378   1_565  A
C392        C393   1.400       .  A
C392        O398   1.317       .  A
C393        C394   1.400   1_545  A
C393        H402   1.082       .  S
C394        C397   1.357       .  A
O395        C396   1.336       .  A
C396        C397   1.391       .  A
C397        H403   1.083       .  S
O398        C399   1.332       .  A
C399        C400   1.400   1_545  A
C400        H404   1.081       .  S
C405        C410   1.379       .  A
C405        C406   1.413       .  A
C405        O411   1.327       .  A
C406        C407   1.413       .  A
C406        H417   1.082       .  S
C407        C416   1.373       .  A
C407        C408   1.379       .  A
C408        C409   1.395       .  A
C408        O414   1.310       .  A
C409        C410   1.394       .  A
C409        H418   1.082       .  S
C410        C413   1.353       .  A
O411        C412   1.337       .  A
C412        C413   1.389       .  A
C413        H419   1.083       .  S
O414        C415   1.328       .  A
C415        C416   1.402       .  A
C416        H420   1.082       .  S
C421        C426   1.380       .  A
C421        C422   1.396       .  A
C421        O427   1.310       .  A
C422        C423   1.395       .  A
C422        H433   1.083       .  S
C423        C432   1.353       .  A
C423        C424   1.380       .  A
C424        C425   1.409       .  A
C424        O430   1.323       .  A
C425        C426   1.408       .  A
C425        H434   1.082       .  S
C426        C429   1.369       .  A
O427        C428   1.328       .  A
C428        C429   1.397       .  A
C429        H435   1.082       .  S
O430        C431   1.334       .  A
C431        C432   1.389       .  A
C432        H436   1.083   1_455  S
C437        C442   1.380       .  A
C437        C438   1.401   1_565  A
C437        O443   1.317       .  A
C438        C439   1.401       .  A
C438        H449   1.083       .  S
C439        C448   1.355       .  A
C439        C440   1.378   1_545  A
C440        C441   1.407       .  A
C440        O446   1.324       .  A
C441        C442   1.407       .  A
C441        H450   1.082       .  S
C442        C445   1.366       .  A
O443        C444   1.331       .  A
C444        C445   1.394       .  A
C445        H451   1.082       .  S
O446        C447   1.334       .  A
C447        C448   1.397   1_565  A
C448        H452   1.082       .  S
