geometry optimzed in LAMMPS
_audit_creation_date              2020-11-30 
_audit_creation_method            'lammps2cif' 
_symmetry_space_group_name_H-M    'P1' 
_symmetry_Int_Tables_number       1 
_symmetry_cell_setting            triclinic 
loop_ 
_symmetry_equiv_pos_as_xyz 
  x,y,z 
_cell_length_a                    32.77747491 
_cell_length_b                    32.763567992375826 
_cell_length_c                    32.76986439429814 
_cell_angle_alpha                 89.95689912405204 
_cell_angle_beta                  89.84623451138155 
_cell_angle_gamma                 89.99379106247729 
loop_ 
_atom_site_label 
_atom_site_type_symbol 
_atom_site_fract_x 
_atom_site_fract_y 
_atom_site_fract_z 
_atom_site_charge 
C1          C  0.23724575  0.84319015  0.03619505     0.05700
C2          C  0.24199565  0.88575635  0.03568151    -0.10500
C3          C  0.24373576  0.90716826  0.99843402     0.03200
C4          C  0.24138179  0.88504007  0.96169101    -0.09000
C5          C  0.23655548  0.84254319  0.96209604     0.05700
C6          C  0.23458218  0.82164735  0.99936349    -0.08400
H7          H  0.24263823  0.90229578  0.06430554     0.11300
H8          H  0.24264276  0.90091540  0.93268389     0.08800
H9          H  0.22998398  0.78886827  0.99971464     0.08600
C10         C  0.63619982  0.14964361  0.03676651     0.05700
C11         C  0.63798139  0.17034064  0.99934459    -0.10500
C12         C  0.63519893  0.14853684  0.96263087     0.03200
C13         C  0.63070340  0.10594548  0.96344681    -0.09000
C14         C  0.62923762  0.08478583  0.00083452     0.05700
C15         C  0.63163086  0.10713848  0.03740899    -0.08400
H16         H  0.64227671  0.20315301  0.99878102     0.11300
H17         H  0.62987862  0.08920647  0.93494239     0.08800
H18         H  0.63042957  0.09142691  0.06651036     0.08600
C19         C  0.78338466  0.03152240  0.29825989     0.05700
C20         C  0.82604256  0.03111204  0.30158876    -0.10500
C21         C  0.84747988  0.99389390  0.30297458     0.03200
C22         C  0.82536035  0.95712698  0.30151039    -0.09000
C23         C  0.78278540  0.95747912  0.29812089     0.05700
C24         C  0.76179984  0.99466971  0.29651553    -0.08400
H25         H  0.84255580  0.05976974  0.30169478     0.11300
H26         H  0.84124609  0.92813530  0.30267859     0.08800
H27         H  0.72889746  0.99493397  0.29315727     0.08600
C28         C  0.09298657  0.03167935  0.70093372     0.05700
C29         C  0.05047097  0.03266934  0.69660215    -0.10500
C30         C  0.02775400  0.99624711  0.69501417     0.03200
C31         C  0.04858052  0.95873201  0.69711194    -0.09000
C32         C  0.09113198  0.95762369  0.70128008     0.05700
C33         C  0.11332616  0.99413456  0.70320415    -0.08400
H34         H  0.03507539  0.06189807  0.69499437     0.11300
H35         H  0.03162090  0.93033632  0.69703566     0.08800
H36         H  0.14612941  0.99333652  0.70733604     0.08600
C37         C  0.89824439  0.69503451  0.15518421     0.05700
C38         C  0.93531260  0.69752958  0.17631003    -0.10500
C39         C  0.97233870  0.69549865  0.15491301     0.03200
C40         C  0.97223854  0.69082269  0.11244455    -0.09000
C41         C  0.93529404  0.68881997  0.09074094     0.05700
C42         C  0.89829837  0.69056804  0.11259851    -0.08400
H43         H  0.93533644  0.70193998  0.20910237     0.11300
H44         H  0.00108564  0.68937136  0.09625139     0.08800
H45         H  0.86950393  0.69010521  0.09641252     0.08600
C46         C  0.89694473  0.29410743  0.84904683     0.05700
C47         C  0.93358520  0.29108545  0.82697987    -0.10500
C48         C  0.97111608  0.29264043  0.84739714     0.03200
C49         C  0.97187095  0.29729343  0.88990487    -0.09000
C50         C  0.93535636  0.29988663  0.91251878     0.05700
C51         C  0.89792426  0.29861794  0.89159323    -0.08400
H52         H  0.93287551  0.28675881  0.79418832     0.11300
H53         H  0.00102263  0.29838899  0.90540312     0.08800
H54         H  0.86946247  0.29953428  0.90848653     0.08600
C55         C  0.63715744  0.84270809  0.03759003     0.05700
C56         C  0.63225253  0.88520370  0.03811418    -0.10500
C57         C  0.62980706  0.90750641  0.00145465     0.03200
C58         C  0.63164625  0.88634110  0.96412717    -0.09000
C59         C  0.63656458  0.84380995  0.96340524     0.05700
C60         C  0.63934086  0.82203891  0.00018381    -0.08400
H61         H  0.63078322  0.90094135  0.06716487     0.11300
H62         H  0.63079876  0.90305690  0.93558499     0.08800
H63         H  0.64389833  0.78926069  0.99968715     0.08600
C64         C  0.23650958  0.14819736  0.03789699     0.05700
C65         C  0.23387052  0.17011528  0.00124188    -0.10500
C66         C  0.23569981  0.14956360  0.96380579     0.03200
C67         C  0.24025860  0.10704929  0.96305875    -0.09000
C68         C  0.24263523  0.08454971  0.99959455     0.05700
C69         C  0.24102590  0.10559840  0.03702914    -0.08400
H70         H  0.22957378  0.20293062  0.00186086     0.11300
H71         H  0.24152968  0.09147113  0.93391452     0.08800
H72         H  0.24177772  0.08878112  0.06551158     0.08600
C73         C  0.78548864  0.03282472  0.70230745     0.05700
C74         C  0.82804702  0.03333415  0.69809328    -0.10500
C75         C  0.85038375  0.99665263  0.69630209     0.03200
C76         C  0.82910345  0.95931289  0.69819412    -0.09000
C77         C  0.78645687  0.95866047  0.70225024     0.05700
C78         C  0.76473469  0.99547516  0.70432193    -0.08400
H79         H  0.84374546  0.06240422  0.69651996     0.11300
H80         H  0.84573828  0.93073099  0.69786192     0.08800
H81         H  0.73187688  0.99505927  0.70822636     0.08600
C82         C  0.08832664  0.03236416  0.29684966     0.05700
C83         C  0.11024515  0.99566014  0.29470777    -0.10500
C84         C  0.08956813  0.95823793  0.29636812     0.03200
C85         C  0.04698887  0.95760204  0.30017481    -0.09000
C86         C  0.02459299  0.99420741  0.30202324     0.05700
C87         C  0.04571592  0.03157298  0.30055898    -0.08400
H88         H  0.14313231  0.99622334  0.29109184     0.11300
H89         H  0.03130831  0.92850214  0.30141202     0.08800
H90         H  0.02897566  0.06009861  0.30097517     0.08600
C91         C  0.89728314  0.69500219  0.84938612     0.05700
C92         C  0.89764350  0.69083014  0.89199657    -0.10500
C93         C  0.93480239  0.68900139  0.91337274     0.03200
C94         C  0.97161510  0.69076592  0.89116837    -0.09000
C95         C  0.97141299  0.69506643  0.84862165     0.05700
C96         C  0.93419792  0.69712938  0.82774872    -0.08400
H97         H  0.86897512  0.69056869  0.90855764     0.11300
H98         H  0.00057069  0.68927739  0.90700145     0.08800
H99         H  0.93396074  0.70123028  0.79490978     0.08600
C100        C  0.89868956  0.29228321  0.15398473     0.05700
C101        C  0.89904146  0.29679727  0.11141042    -0.10500
C102        C  0.93617795  0.29885768  0.08983913     0.03200
C103        C  0.97299845  0.29699507  0.11177616    -0.09000
C104        C  0.97284401  0.29247248  0.15429316     0.05700
C105        C  0.93563794  0.29008768  0.17539979    -0.08400
H106        H  0.87037138  0.29725140  0.09500137     0.11300
H107        H  0.00192221  0.29870386  0.09574315     0.08800
H108        H  0.93543795  0.28587880  0.20822363     0.08600
C109        C  0.28096124  0.53128327  0.80249335     0.05700
C110        C  0.32353042  0.53198365  0.80626012    -0.10500
C111        C  0.34608609  0.49540428  0.80715384     0.03200
C112        C  0.32499950  0.45801600  0.80513705    -0.09000
C113        C  0.28236436  0.45725827  0.80165656     0.05700
C114        C  0.26039460  0.49390365  0.80035720    -0.08400
H115        H  0.33908839  0.56112391  0.80777677     0.11300
H116        H  0.34177001  0.42950962  0.80461076     0.08800
H117        H  0.22754120  0.49334512  0.79660046     0.08600
C118        C  0.28231467  0.53207618  0.20007758     0.05700
C119        C  0.32492182  0.53258498  0.19684325    -0.10500
C120        C  0.34724421  0.49592391  0.19605731     0.03200
C121        C  0.32603737  0.45862194  0.19792132    -0.09000
C122        C  0.28337265  0.45799586  0.20108629     0.05700
C123        C  0.26152378  0.49476220  0.20217356    -0.08400
H124        H  0.34069599  0.56162808  0.19539419     0.11300
H125        H  0.34274282  0.43007543  0.19837679     0.08800
H126        H  0.22860299  0.49434821  0.20548409     0.08600
C127        C  0.13427790  0.34261627  0.53798028     0.05700
C128        C  0.13733757  0.32167755  0.50079815    -0.10500
C129        C  0.13571410  0.34320680  0.46382454     0.03200
C130        C  0.13101137  0.38576130  0.46410724    -0.09000
C131        C  0.12812863  0.40722600  0.50120877     0.05700
C132        C  0.12937133  0.38511851  0.53808209    -0.08400
H133        H  0.14191363  0.28889682  0.50064912     0.11300
H134        H  0.13122151  0.40223557  0.43541581     0.08800
H135        H  0.12715408  0.40099622  0.56700472     0.08600
O136        O  0.19019491  0.29605583  0.66325392    -0.76000
C137        C  0.22729186  0.34785894  0.77964141     0.85100
O138        O  0.27187420  0.19223254  0.73124967    -0.77100
O139        O  0.19647191  0.23863040  0.85203171    -0.78600
O140        O  0.08379990  0.25479120  0.75782190    -0.78400
O141        O  0.12982221  0.26478140  0.66601382    -0.77000
Zn142      Zn  0.21984490  0.28078658  0.71522506     1.55700
O143        O  0.11300628  0.28235859  0.81282071    -0.78400
Cd144      Cd  0.13271712  0.23513616  0.72217733     1.59700
Cd145      Cd  0.21551840  0.19320884  0.76033324     1.59600
O146        O  0.12548526  0.17297192  0.71271260    -0.78400
O147        O  0.18617275  0.24609096  0.74999195    -1.88900
Cd148      Cd  0.17528684  0.27375653  0.80365316     1.59900
O149        O  0.18147645  0.14429334  0.73902228    -0.78300
O150        O  0.20477639  0.32982660  0.80577980    -0.77000
C151        C  0.28902554  0.21841748  0.70816480     0.85600
C152        C  0.15554816  0.28768561  0.64788160     0.85200
O153        O  0.23502802  0.33262743  0.74474058    -0.75900
C154        C  0.08147753  0.27264565  0.79230229     0.86000
O155        O  0.27242375  0.25246368  0.69954341    -0.76000
C156        C  0.14699174  0.14175124  0.72135027     0.86200
C157        C  0.21502763  0.20451419  0.85398576     0.86500
O158        O  0.22472449  0.18412762  0.82232537    -0.78500
C159        C  0.73692056  0.34166339  0.53698398     0.05700
C160        C  0.74046311  0.38428235  0.53722052    -0.10500
C161        C  0.74070679  0.40654676  0.50044798     0.03200
C162        C  0.73807531  0.38515194  0.46328285    -0.09000
C163        C  0.73469637  0.34245473  0.46292825     0.04900
C164        C  0.73410559  0.32077289  0.49981212    -0.08400
H165        H  0.74253617  0.40010399  0.56617462     0.11300
H166        H  0.73722161  0.40172353  0.43466122     0.08800
H167        H  0.73058372  0.28785993  0.49961588     0.08600
C168        C  0.39899019  0.19837688  0.65309801     0.05700
C169        C  0.43629908  0.19950806  0.67386258    -0.10500
C170        C  0.47304373  0.19669458  0.65204332     0.03200
C171        C  0.47240437  0.19279778  0.60945725    -0.09000
C172        C  0.43514165  0.19184959  0.58827234     0.05700
C173        C  0.39848420  0.19437288  0.61055749    -0.08400
H174        H  0.43675451  0.20332704  0.70672559     0.11300
H175        H  0.50098573  0.19192506  0.59275948     0.08800
H176        H  0.36945238  0.19356523  0.59480700     0.08600
O177        O  0.63536907  0.33207228  0.74038934    -0.76000
C178        C  0.71700986  0.28660884  0.64685832     0.85100
O179        O  0.60138306  0.18907034  0.72837059    -0.77100
O180        O  0.74984404  0.17442275  0.71355510    -0.78600
O181        O  0.75404916  0.28375805  0.81406395    -0.78400
O182        O  0.66238569  0.33007269  0.80276428    -0.77000
Zn183      Zn  0.65125195  0.27913489  0.71291408     1.55700
O184        O  0.78603864  0.25765898  0.75971359    -0.78400
Cd185      Cd  0.69238310  0.27400348  0.80252948     1.59700
Cd186      Cd  0.65731407  0.19142836  0.75819370     1.59600
O187        O  0.67026563  0.23834274  0.85030498    -0.78400
O188        O  0.68476056  0.24554282  0.74872378    -1.88900
Cd189      Cd  0.73950427  0.23630611  0.72251400     1.59900
O190        O  0.64748340  0.18163678  0.82011394    -0.78300
O191        O  0.74337756  0.26570922  0.66629030    -0.77000
C192        C  0.58362383  0.21520782  0.70572904     0.85600
C193        C  0.64155316  0.34798053  0.77526336     0.85200
O194        O  0.68144521  0.29335305  0.66100715    -0.75900
C195        C  0.78655656  0.27511981  0.79443637     0.86000
O196        O  0.59935636  0.24979563  0.69759917    -0.76000
C197        C  0.65438077  0.20286333  0.85192817     0.86200
C198        C  0.72911669  0.14241226  0.72123566     0.86500
O199        O  0.69373845  0.14374011  0.73742018    -0.78500
C200        C  0.13507776  0.64930914  0.53667709     0.05700
C201        C  0.12990137  0.60688762  0.53690677    -0.10500
C202        C  0.12840387  0.58470994  0.50016259     0.03200
C203        C  0.13101306  0.60609536  0.46295118    -0.09000
C204        C  0.13584357  0.64866044  0.46248848     0.05700
C205        C  0.13796386  0.67023044  0.49941769    -0.08400
H206        H  0.12770404  0.59109278  0.56590049     0.11300
H207        H  0.13089293  0.58956008  0.43431866     0.08800
H208        H  0.14268474  0.70298678  0.49916424     0.08600
O209        O  0.17900287  0.79409384  0.83793946    -0.76000
C210        C  0.14346397  0.84651174  0.72195122     0.85100
O211        O  0.09946680  0.68879958  0.77107032    -0.77100
O212        O  0.17332248  0.73675595  0.64964635    -0.78600
O213        O  0.28619812  0.75460558  0.74391712    -0.78400
O214        O  0.24009125  0.76424841  0.83512958    -0.77000
Zn215      Zn  0.14980065  0.77862460  0.78585392     1.55700
O216        O  0.25665309  0.78084113  0.68843214    -0.78400
Cd217      Cd  0.23768207  0.73420919  0.77941887     1.59700
Cd218      Cd  0.15585697  0.69046898  0.74154013     1.59600
O219        O  0.24642649  0.67238863  0.78951483    -0.78400
O220        O  0.18405281  0.74408261  0.75150801    -1.88900
Cd221      Cd  0.19457593  0.77191353  0.69782423     1.59900
O222        O  0.19116782  0.64233905  0.76326082    -0.78300
O223        O  0.16572056  0.82832495  0.69573764    -0.77000
C224        C  0.08152067  0.71517566  0.79336431     0.85600
C225        C  0.21389935  0.78660042  0.85319371     0.85200
O226        O  0.13520598  0.83094018  0.75660728    -0.75900
C227        C  0.28825929  0.77201887  0.70920282     0.86000
O228        O  0.09728681  0.74982150  0.80115010    -0.76000
C229        C  0.22566389  0.64065203  0.78107544     0.86200
C230        C  0.15564340  0.70219069  0.64762587     0.86500
O231        O  0.14680529  0.68126795  0.67927970    -0.78500
C232        C  0.58800579  0.53285532  0.79659596     0.05700
C233        C  0.60887115  0.49561698  0.79325843    -0.10500
C234        C  0.58723085  0.45868941  0.79461082     0.03200
C235        C  0.54468826  0.45909389  0.79926929    -0.09000
C236        C  0.52335331  0.49624811  0.80250212     0.05700
C237        C  0.54550557  0.53305342  0.80140008    -0.08400
H238        H  0.64167675  0.49539328  0.78895232     0.11300
H239        H  0.52813700  0.43046001  0.79910221     0.08800
H240        H  0.52968672  0.56199064  0.80397653     0.08600
C241        C  0.39849916  0.79160172  0.65428653     0.05700
C242        C  0.43587258  0.79024215  0.67496868    -0.10500
C243        C  0.47263374  0.79244249  0.65305450     0.03200
C244        C  0.47189617  0.79601424  0.61039237    -0.09000
C245        C  0.43456403  0.79730934  0.58924780     0.05700
C246        C  0.39794556  0.79533713  0.61169582    -0.08400
H247        H  0.43635570  0.78672525  0.70786943     0.11300
H248        H  0.50044493  0.79650772  0.59363232     0.08800
H249        H  0.36887208  0.79644376  0.59604615     0.08600
C250        C  0.73523371  0.64875074  0.53801477     0.05700
C251        C  0.73916273  0.60612977  0.53819110    -0.10500
C252        C  0.73993280  0.58401789  0.50133324     0.03200
C253        C  0.73729411  0.60554536  0.46424063    -0.09000
C254        C  0.73349897  0.64817191  0.46396581     0.05700
C255        C  0.73250589  0.66973583  0.50086184    -0.08400
H256        H  0.74118854  0.59021110  0.56711694     0.11300
H257        H  0.73673910  0.58910400  0.43555728     0.08800
H258        H  0.72872680  0.70262107  0.50068349     0.08600
O259        O  0.73761579  0.83291224  0.75630445    -0.76000
C260        C  0.65668942  0.78950367  0.85288578     0.85100
O261        O  0.76975199  0.69007785  0.77170282    -0.77100
O262        O  0.62266642  0.67531414  0.78809848    -0.78600
O263        O  0.61536536  0.78405461  0.68708936    -0.78400
O264        O  0.70749137  0.83142101  0.69537758    -0.77000
Zn265      Zn  0.72105070  0.78104026  0.78547330     1.55700
O266        O  0.58489479  0.75828454  0.74253491    -0.78400
Cd267      Cd  0.67746698  0.77521178  0.69716093     1.59700
Cd268      Cd  0.71411666  0.69302096  0.74146040     1.59600
O269        O  0.69916978  0.73939385  0.64932380    -0.78400
O270        O  0.68657114  0.74705398  0.75100735    -1.88900
Cd271      Cd  0.63257769  0.73742746  0.77878257     1.59900
O272        O  0.72421713  0.68366444  0.67965361    -0.78300
O273        O  0.63031368  0.76735209  0.83488205    -0.77000
C274        C  0.78777654  0.71619787  0.79409052     0.85600
C275        C  0.73020530  0.84885110  0.72166456     0.85200
O276        O  0.69157833  0.79688412  0.83738164    -0.75900
C277        C  0.58340119  0.77530245  0.70757421     0.86000
O278        O  0.77258740  0.75119503  0.80145140    -0.76000
C279        C  0.71623757  0.70445586  0.64779367     0.86200
C280        C  0.64308836  0.64341787  0.77913688     0.86500
O281        O  0.67787174  0.64507741  0.76177700    -0.78500
C282        C  0.39849117  0.19510109  0.34676907     0.05700
C283        C  0.43563809  0.19633724  0.32554464    -0.10500
C284        C  0.47254115  0.19435848  0.34697620     0.03200
C285        C  0.47221387  0.19122325  0.38965685    -0.09000
C286        C  0.43507561  0.19023161  0.41127065     0.05700
C287        C  0.39827987  0.19185505  0.38936202    -0.08400
H288        H  0.43583567  0.19965560  0.29261927     0.11300
H289        H  0.50089071  0.19099679  0.40606453     0.08800
H290        H  0.36935182  0.19103514  0.40546616     0.08600
O291        O  0.63425606  0.33071104  0.25790458    -0.76000
C292        C  0.58273588  0.21376399  0.29236986     0.85100
O293        O  0.74032567  0.26520025  0.33522673    -0.77100
O294        O  0.69350593  0.14284869  0.26161850    -0.78600
O295        O  0.67295232  0.23882567  0.14939955    -0.78400
O296        O  0.66484378  0.32990747  0.19704656    -0.77000
Zn297      Zn  0.64987265  0.27821797  0.28605864     1.55700
O298        O  0.64873694  0.18204230  0.17852605    -0.78400
Cd299      Cd  0.69425430  0.27355963  0.19796454     1.59700
Cd300      Cd  0.73825884  0.23522475  0.27931118     1.59600
O301        O  0.75631018  0.28244145  0.18821182    -0.78400
O302        O  0.68461343  0.24471863  0.25130772    -1.88900
Cd303      Cd  0.65747513  0.19073275  0.24071797     1.59900
O304        O  0.78630875  0.25583689  0.24333212    -0.78300
O305        O  0.60104451  0.18783637  0.26986416    -0.77000
C306        C  0.71358333  0.28673350  0.35352705     0.85600
C307        C  0.64225013  0.34717428  0.22362522     0.85200
O308        O  0.59802137  0.24847330  0.30064942    -0.75900
C309        C  0.65651238  0.20365990  0.14710105     0.86000
O310        O  0.67851360  0.29346121  0.33836638    -0.76000
C311        C  0.78808328  0.27332017  0.20862459     0.86200
C312        C  0.72789015  0.14143831  0.27964281     0.86500
O313        O  0.74791968  0.17339752  0.28896840    -0.78500
C314        C  0.39783828  0.79463568  0.34694304     0.05700
C315        C  0.39719480  0.79808598  0.38958361    -0.10500
C316        C  0.43382085  0.79986514  0.41189179     0.03200
C317        C  0.47114824  0.79875505  0.39055947    -0.09000
C318        C  0.47189794  0.79541340  0.34790849     0.05700
C319        C  0.43521471  0.79341175  0.32613608    -0.08400
H320        H  0.36810418  0.79889899  0.40537598     0.11300
H321        H  0.49969871  0.79891665  0.40717820     0.08800
H322        H  0.43576294  0.78992575  0.29323371     0.08600
C323        C  0.58899545  0.53200355  0.20465136     0.05700
C324        C  0.54648035  0.53249417  0.20055354    -0.10500
C325        C  0.52421299  0.49582474  0.19915646     0.03200
C326        C  0.54538953  0.45852504  0.20141336    -0.09000
C327        C  0.58796664  0.45788822  0.20542220     0.05700
C328        C  0.60975434  0.49467806  0.20710634    -0.08400
H329        H  0.53074135  0.56153128  0.19869490     0.11300
H330        H  0.52870297  0.42996448  0.20127887     0.08800
H331        H  0.64260002  0.49426724  0.21091436     0.08600
O332        O  0.67784778  0.69565325  0.33850365    -0.76000
C333        C  0.58212403  0.77510115  0.29335499     0.85100
O334        O  0.66526518  0.66054196  0.19620235    -0.77100
O335        O  0.64766499  0.80810575  0.17949243    -0.78600
O336        O  0.74764594  0.81589306  0.28878555    -0.78400
O337        O  0.73926091  0.72483136  0.33605807    -0.77000
Zn338      Zn  0.64945173  0.71076702  0.28597340     1.55700
O339        O  0.69267234  0.84629295  0.26231561    -0.78400
Cd340      Cd  0.73780919  0.75406417  0.27979277     1.59700
Cd341      Cd  0.69436137  0.71692258  0.19794134     1.59600
O342        O  0.78611147  0.73254093  0.24466509    -0.78400
O343        O  0.68420636  0.74475867  0.25165018    -1.88900
Cd344      Cd  0.65664643  0.79861887  0.24157196     1.59900
O345        O  0.75635806  0.70750859  0.18875892    -0.78300
O346        O  0.60059016  0.80141990  0.27141601    -0.77000
C347        C  0.64314677  0.64250078  0.22267813     0.85600
C348        C  0.71259087  0.70300848  0.35410949     0.85200
O349        O  0.59717872  0.74005363  0.30073961    -0.75900
C350        C  0.72730166  0.84776805  0.27979858     0.86000
O351        O  0.63495478  0.65831533  0.25720784    -0.76000
C352        C  0.78800995  0.71552927  0.20975890     0.86200
C353        C  0.65648818  0.78741478  0.14774724     0.86500
O354        O  0.67369849  0.75257375  0.14962033    -0.78500
O355        O  0.09880545  0.75124015  0.19917083    -0.76000
C356        C  0.14436638  0.84805768  0.27721325     0.85100
O357        O  0.24201364  0.76580152  0.16412596    -0.77100
O358        O  0.25675837  0.78245627  0.31149700    -0.78600
O359        O  0.14878733  0.68183914  0.32004243    -0.78400
O360        O  0.10128593  0.69025643  0.22939862    -0.77000
Zn361      Zn  0.15147152  0.78001339  0.21357670     1.55700
O362        O  0.17359996  0.73772205  0.35007774    -0.78400
Cd363      Cd  0.15770462  0.69190971  0.25801569     1.59700
Cd364      Cd  0.23947418  0.73590625  0.22015978     1.59600
O365        O  0.19285776  0.64398721  0.23609966    -0.78400
O366        O  0.18559101  0.74563314  0.24802501    -1.88900
Cd367      Cd  0.19492635  0.77330985  0.30191883     1.59900
O368        O  0.24863924  0.67391138  0.21050729    -0.78300
O369        O  0.16588153  0.82971798  0.30385702    -0.77000
C370        C  0.21568422  0.78783142  0.14591905     0.85600
C371        C  0.08310997  0.71663242  0.20740970     0.85200
O372        O  0.13690896  0.83254761  0.24241951    -0.75900
C373        C  0.15681483  0.70267811  0.35184143     0.86000
O374        O  0.18067409  0.79510344  0.16119632    -0.76000
C375        C  0.22764205  0.64220972  0.21876204     0.86200
C376        C  0.28870161  0.77405525  0.29092958     0.86500
O377        O  0.28732508  0.75682607  0.25609507    -0.78500
O378        O  0.23673568  0.33226550  0.25624604    -0.76000
C379        C  0.15774041  0.28863252  0.35376591     0.85100
O380        O  0.26985549  0.18922110  0.27146690    -0.77100
O381        O  0.12271526  0.17510287  0.28874182    -0.78600
O382        O  0.11519320  0.28224010  0.18753086    -0.78400
O383        O  0.20668012  0.32981036  0.19527501    -0.77000
Zn384      Zn  0.22138905  0.28025505  0.28563289     1.55700
O385        O  0.08520456  0.25815731  0.24396236    -0.78400
Cd386      Cd  0.17730398  0.27353128  0.19732866     1.59700
Cd387      Cd  0.21408558  0.19206597  0.24179216     1.59600
O388        O  0.19915691  0.23774551  0.14951783    -0.78400
O389        O  0.18680119  0.24614522  0.25141958    -1.88900
Cd390      Cd  0.13304449  0.23701660  0.27962873     1.59900
O391        O  0.22424990  0.18223161  0.18009470    -0.78300
O392        O  0.13119724  0.26674201  0.33573715    -0.77000
C393        C  0.28845304  0.21565872  0.29296220     0.85600
C394        C  0.22898267  0.34779645  0.22149912     0.85200
O395        O  0.19263475  0.29586563  0.33817746    -0.75900
C396        C  0.08342757  0.27438342  0.20866628     0.86000
O397        O  0.27349186  0.25076294  0.30030610    -0.76000
C398        C  0.21630029  0.20284562  0.14813218     0.86200
C399        C  0.14285070  0.14310182  0.27958833     0.86500
O400        O  0.17762022  0.14448269  0.26219656    -0.78500
C401        C  0.61072162  0.57009065  0.20838969    -0.10700
C402        C  0.62657271  0.60293228  0.21358312    -0.12300
C403        C  0.36005145  0.78971172  0.32497948    -0.10700
C404        C  0.32780647  0.78352035  0.30833724    -0.12300
C405        C  0.51041656  0.79106197  0.32691700    -0.10700
C406        C  0.54303144  0.78506185  0.31075306    -0.12300
C407        C  0.62491181  0.38656668  0.21493729    -0.10700
C408        C  0.60888013  0.41935555  0.20972850    -0.12300
C409        C  0.51087186  0.19823488  0.32560905    -0.10700
C410        C  0.54351994  0.20383431  0.30940887    -0.12300
C411        C  0.32768136  0.20577604  0.30972525    -0.10700
C412        C  0.36038052  0.19969033  0.32542570    -0.12300
C413        C  0.73134464  0.67050493  0.57612711    -0.10700
C414        C  0.72570502  0.68709060  0.60857355    -0.12300
C415        C  0.72813514  0.66936536  0.42575665    -0.10700
C416        C  0.72193007  0.68560264  0.39327217    -0.12300
C417        C  0.40533525  0.77574558  0.52177263    -0.10800
C418        C  0.43376256  0.79904923  0.54382612     0.11300
C419        C  0.46172649  0.82336099  0.52208759    -0.10800
C420        C  0.46143444  0.82411085  0.47937000    -0.10800
C421        C  0.43318164  0.80054464  0.45734665     0.11300
C422        C  0.40504164  0.77649652  0.47913012    -0.10800
H423        H  0.38388623  0.75606261  0.53747449     0.15300
H424        H  0.48365862  0.84210081  0.53813963     0.15300
H425        H  0.48318855  0.84335864  0.46354632     0.15300
H426        H  0.38341170  0.75732250  0.46318213     0.15300
C427        C  0.51125904  0.78876626  0.67392240    -0.10700
C428        C  0.54406136  0.78382220  0.68999205    -0.12300
C429        C  0.60959925  0.57114695  0.79292440    -0.10700
C430        C  0.62568495  0.60397759  0.78784988    -0.12300
C431        C  0.36049092  0.78696455  0.67618993    -0.10700
C432        C  0.32778523  0.78115472  0.69227783    -0.12300
C433        C  0.14742062  0.68551039  0.39125393    -0.10700
C434        C  0.14123074  0.66961887  0.42401093    -0.12300
C435        C  0.14005033  0.67052630  0.57498895    -0.10700
C436        C  0.14614645  0.68577306  0.60800378    -0.12300
C437        C  0.60819249  0.42024514  0.78933688    -0.10700
C438        C  0.62413216  0.38744685  0.78370119    -0.12300
C439        C  0.46208607  0.16548536  0.52128109    -0.10800
C440        C  0.43452779  0.19029793  0.54293886     0.11300
C441        C  0.40689731  0.21455923  0.52091487    -0.10800
C442        C  0.40693938  0.21421323  0.47831712    -0.10800
C443        C  0.43461016  0.18960723  0.45661680     0.11300
C444        C  0.46214877  0.16516555  0.47857715    -0.10800
H445        H  0.48342232  0.14608464  0.53738812     0.15300
H446        H  0.38584130  0.23464257  0.53662174     0.15300
H447        H  0.38588235  0.23401247  0.46232318     0.15300
H448        H  0.48351573  0.14553825  0.46270979     0.15300
C449        C  0.51159692  0.20039040  0.67283761    -0.10700
C450        C  0.54440360  0.20573342  0.68863011    -0.12300
C451        C  0.71898665  0.47369977  0.53044262    -0.10800
C452        C  0.74157194  0.45201722  0.50104976     0.11300
C453        C  0.76416564  0.47416348  0.47196524    -0.10800
C454        C  0.76405430  0.51691683  0.47225336    -0.10800
C455        C  0.74131352  0.53855002  0.50161180     0.11300
C456        C  0.71886200  0.51634269  0.53072126    -0.10800
H457        H  0.70052129  0.45768230  0.55273742     0.15300
H458        H  0.78225896  0.45841591  0.44919099     0.15300
H459        H  0.78206036  0.53306531  0.44967620     0.15300
H460        H  0.70028027  0.53194057  0.55319832     0.15300
C461        C  0.72938680  0.32121204  0.42472581    -0.10700
C462        C  0.72317938  0.30460875  0.39242671    -0.12300
C463        C  0.73328611  0.31990571  0.57513483    -0.10700
C464        C  0.72744792  0.30363332  0.60772042    -0.12300
C465        C  0.32839807  0.20938521  0.69097221    -0.10700
C466        C  0.36103169  0.20344429  0.67486803    -0.12300
C467        C  0.10401297  0.47446961  0.47224072    -0.10800
C468        C  0.12659596  0.45269641  0.50153965     0.11300
C469        C  0.14906292  0.47477539  0.53056804    -0.10800
C470        C  0.14921085  0.51738011  0.53022918    -0.10800
C471        C  0.12684644  0.53924391  0.50089410     0.11300
C472        C  0.10413261  0.51724836  0.47192019    -0.10800
H473        H  0.08603489  0.45841869  0.44968879     0.15300
H474        H  0.16758994  0.45910851  0.55295928     0.15300
H475        H  0.16786018  0.53319946  0.55238788     0.15300
H476        H  0.08622099  0.53311215  0.44916259     0.15300
C477        C  0.14154761  0.32217880  0.42550830    -0.10700
C478        C  0.14810170  0.30611458  0.39294232    -0.12300
C479        C  0.13902433  0.32113332  0.57621624    -0.10700
C480        C  0.14535104  0.30498279  0.60878232    -0.12300
C481        C  0.41398465  0.52501275  0.21949410    -0.10800
C482        C  0.39259674  0.49665931  0.19551537     0.11300
C483        C  0.41487838  0.46847607  0.17202179    -0.10800
C484        C  0.45756329  0.46842833  0.17280517    -0.10800
C485        C  0.47890356  0.49655871  0.19711006     0.11300
C486        C  0.45658118  0.52496176  0.22028052    -0.10800
H487        H  0.39775306  0.54661600  0.23854819     0.15300
H488        H  0.39927657  0.44659206  0.15284473     0.15300
H489        H  0.47390684  0.44652868  0.15419184     0.15300
H490        H  0.47204401  0.54654420  0.23990462     0.15300
C491        C  0.26242270  0.41955410  0.20580252    -0.10700
C492        C  0.24633293  0.38693283  0.21178346    -0.12300
C493        C  0.26049970  0.57010360  0.20384182    -0.10700
C494        C  0.24447526  0.60281949  0.20932769    -0.12300
C495        C  0.41278902  0.52557438  0.78425456    -0.10800
C496        C  0.39153553  0.49634031  0.80746747     0.11300
C497        C  0.41408762  0.46742815  0.82976460    -0.10800
C498        C  0.45680432  0.46759889  0.82857378    -0.10800
C499        C  0.47797864  0.49669519  0.80508338     0.11300
C500        C  0.45539362  0.52576621  0.78310017    -0.10800
H501        H  0.39646858  0.54771991  0.76597330     0.15300
H502        H  0.39869992  0.44479439  0.84833852     0.15300
H503        H  0.47329207  0.44509980  0.84627463     0.15300
H504        H  0.47064462  0.54807725  0.76403011     0.15300
C505        C  0.24508077  0.38660802  0.78977571    -0.10700
C506        C  0.26150924  0.41889522  0.79635249    -0.12300
C507        C  0.25893614  0.56908095  0.79764999    -0.10700
C508        C  0.24250932  0.60141136  0.79113875    -0.12300
C509        C  0.82750735  0.28212485  0.19127440    -0.10700
C510        C  0.86026946  0.28765701  0.17518783    -0.12300
C511        C  0.01111499  0.28827633  0.17566279    -0.10700
C512        C  0.04396080  0.28306093  0.19152360    -0.12300
C513        C  0.82655076  0.70608854  0.81194831    -0.10700
C514        C  0.85895172  0.69985625  0.82831323    -0.12300
C515        C  0.00957638  0.69978737  0.82694776    -0.10700
C516        C  0.04220490  0.70571485  0.81069891    -0.12300
C517        C  0.12753835  0.88753943  0.28649422    -0.10700
C518        C  0.11147024  0.92025403  0.29206776    -0.12300
C519        C  0.12512619  0.10384993  0.28810721    -0.10700
C520        C  0.10911633  0.07101231  0.29306491    -0.12300
C521        C  0.74849529  0.88775326  0.71220376    -0.10700
C522        C  0.76528275  0.92016762  0.70660201    -0.12300
C523        C  0.76356742  0.07081614  0.70671481    -0.10700
C524        C  0.74691339  0.10325238  0.71229164    -0.12300
C525        C  0.23057273  0.17152481  0.92596669    -0.10700
C526        C  0.22444150  0.18772931  0.89343276    -0.12300
C527        C  0.23191669  0.16903617  0.07646037    -0.10700
C528        C  0.22594996  0.18536950  0.10898833    -0.12300
C529        C  0.64706605  0.80700029  0.89206185    -0.10700
C530        C  0.64122780  0.82301845  0.92479016    -0.12300
C531        C  0.64201477  0.82089419  0.07563069    -0.10700
C532        C  0.64766382  0.80463199  0.10827195    -0.12300
C533        C  0.96454314  0.27727905  0.97957541    -0.10800
C534        C  0.93632073  0.30123955  0.95795720     0.11300
C535        C  0.90838646  0.32519179  0.98015957    -0.10800
C536        C  0.90851476  0.32485792  0.02291949    -0.10800
C537        C  0.93662146  0.30061641  0.04443564     0.11300
C538        C  0.96470400  0.27699238  0.02218538    -0.10800
H539        H  0.98587538  0.25776035  0.96354003     0.15300
H540        H  0.88653513  0.34434431  0.96445489     0.15300
H541        H  0.88677311  0.34374794  0.03917320     0.15300
H542        H  0.98619393  0.25731882  0.03774464     0.15300
C543        C  0.85817587  0.28993204  0.82856389    -0.10700
C544        C  0.82542816  0.28440770  0.81259793    -0.12300
C545        C  0.04177101  0.28138017  0.80923718    -0.10700
C546        C  0.00905904  0.28730822  0.82538013    -0.12300
C547        C  0.96387884  0.71109666  0.02320442    -0.10800
C548        C  0.93551702  0.68761428  0.04530177     0.11300
C549        C  0.90700489  0.66405563  0.02359309    -0.10800
C550        C  0.90688861  0.66411611  0.98082522    -0.10800
C551        C  0.93528467  0.68771972  0.95881439     0.11300
C552        C  0.96377489  0.71114037  0.98060903    -0.10800
H553        H  0.98563037  0.73037199  0.03886024     0.15300
H554        H  0.88499928  0.64531896  0.03968127     0.15300
H555        H  0.88478346  0.64541661  0.96496253     0.15300
H556        H  0.98544737  0.73041986  0.96471899     0.15300
C557        C  0.86002675  0.69991691  0.17664385    -0.10700
C558        C  0.82741217  0.70599579  0.19279984    -0.12300
C559        C  0.01065381  0.70082255  0.17582667    -0.10700
C560        C  0.04354199  0.70715460  0.19109639    -0.12300
C561        C  0.96058922  0.02614067  0.71691574    -0.10800
C562        C  0.98233966  0.99737153  0.69363804     0.11300
C563        C  0.96028843  0.96892918  0.67031691    -0.10800
C564        C  0.91755763  0.96894994  0.67072010    -0.10800
C565        C  0.89583738  0.99741514  0.69444477     0.11300
C566        C  0.91795250  0.02615863  0.71732252    -0.10800
H567        H  0.97653445  0.04796866  0.73586911     0.15300
H568        H  0.97609963  0.94671272  0.65162123     0.15300
H569        H  0.90148965  0.94677548  0.65227926     0.15300
H570        H  0.90230309  0.04802781  0.73654932     0.15300
C571        C  0.11148520  0.91889933  0.70623179    -0.10700
C572        C  0.12686884  0.88597151  0.71231956    -0.12300
C573        C  0.13101876  0.10206564  0.71178302    -0.10700
C574        C  0.11508410  0.06942970  0.70568828    -0.12300
C575        C  0.91469382  0.02138712  0.32788259    -0.10800
C576        C  0.89285408  0.99333181  0.30394055     0.11300
C577        C  0.91472739  0.96513542  0.28008424    -0.10800
C578        C  0.95733680  0.96517642  0.27988311    -0.10800
C579        C  0.97922675  0.99341560  0.30353752     0.11300
C580        C  0.95739791  0.02141992  0.32769202    -0.10800
H581        H  0.89873745  0.04314130  0.34699557     0.15300
H582        H  0.89888471  0.94363260  0.26068004     0.15300
H583        H  0.97315508  0.94372422  0.26032063     0.15300
H584        H  0.97336379  0.04321322  0.34666859     0.15300
C585        C  0.74471165  0.88696075  0.28868190    -0.10700
C586        C  0.76107948  0.91947812  0.29406360    -0.12300
C587        C  0.74550112  0.10227776  0.28868850    -0.10700
C588        C  0.76208017  0.06982563  0.29415482    -0.12300
C589        C  0.60326874  0.97460822  0.97460424    -0.10800
C590        C  0.62796241  0.95290819  0.00217364     0.11300
C591        C  0.65218381  0.97497718  0.02975706    -0.10800
C592        C  0.65210329  0.01759774  0.02955216    -0.10800
C593        C  0.62777429  0.03937467  0.00178025     0.11300
C594        C  0.60317403  0.01737934  0.97440973    -0.10800
H595        H  0.58392730  0.95848025  0.95326528     0.15300
H596        H  0.67217732  0.95926458  0.05082177     0.15300
H597        H  0.67203760  0.03353598  0.05047975     0.15300
H598        H  0.58374433  0.03326981  0.95294942     0.15300
C599        C  0.64506713  0.18550080  0.89124979    -0.10700
C600        C  0.63949064  0.16940225  0.92399841    -0.12300
C601        C  0.64730171  0.18719484  0.10747098    -0.10700
C602        C  0.64130891  0.17137095  0.07473365    -0.12300
C603        C  0.26931453  0.97443350  0.02574868    -0.10800
C604        C  0.24511290  0.95261451  0.99787667     0.11300
C605        C  0.22091911  0.97460407  0.97015041    -0.10800
C606        C  0.22057459  0.01723423  0.97049033    -0.10800
C607        C  0.24442673  0.03912240  0.99856067     0.11300
C608        C  0.26897472  0.01720697  0.02608461    -0.10800
H609        H  0.28862811  0.95840275  0.04720722     0.15300
H610        H  0.20125887  0.95881983  0.94885182     0.15300
H611        H  0.20068757  0.03307288  0.94942059     0.15300
H612        H  0.28807061  0.03316421  0.04776798     0.15300
C613        C  0.23083831  0.82093053  0.92418073    -0.10700
C614        C  0.22400849  0.80441850  0.89197305    -0.12300
C615        C  0.23211477  0.82207890  0.07457159    -0.10700
C616        C  0.22569396  0.80559965  0.10696507    -0.12300
loop_ 
_geom_bond_atom_site_label_1 
_geom_bond_atom_site_label_2 
_geom_bond_distance 
_geom_bond_site_symmetry_2 
_ccdc_geom_bond_type 
C1            C2   1.403       .  A
C1            C6   1.402   1_554  A
C1          C615   1.444       .  S
C2            C3   1.408   1_554  A
C2            H7   1.084       .  S
C3            C4   1.408       .  A
C3          C604   1.490       .  S
C4            C5   1.401       .  A
C4            H8   1.084       .  S
C5            C6   1.401       .  A
C5          C613   1.443       .  S
C6            H9   1.085       .  S
C10          C11   1.402   1_554  A
C10          C15   1.401       .  A
C10         C602   1.444       .  S
C11          C12   1.403       .  A
C11          H16   1.084       .  S
C12          C13   1.403       .  A
C12         C600   1.445       .  S
C13          C14   1.408   1_556  A
C13          H17   1.084       .  S
C14          C15   1.407       .  A
C14         C593   1.489       .  S
C15          H18   1.084       .  S
C19          C20   1.403       .  A
C19          C24   1.401   1_545  A
C19         C588   1.442       .  S
C20          C21   1.408   1_545  A
C20          H25   1.084       .  S
C21          C22   1.407       .  A
C21         C576   1.488       .  S
C22          C23   1.400       .  A
C22          H26   1.084       .  S
C23          C24   1.400       .  A
C23         C586   1.440       .  S
C24          H27   1.084       .  S
C28          C29   1.402       .  A
C28          C33   1.401   1_545  A
C28         C574   1.442       .  S
C29          C30   1.408   1_545  A
C29          H34   1.084       .  S
C30          C31   1.408       .  A
C30         C562   1.490   1_455  S
C31          C32   1.402       .  A
C31          H35   1.084       .  S
C32          C33   1.402       .  A
C32         C571   1.443       .  S
C33          H36   1.084       .  S
C37          C38   1.402       .  A
C37          C42   1.403       .  A
C37         C557   1.444       .  S
C38          C39   1.402       .  A
C38          H43   1.084       .  S
C39          C40   1.400       .  A
C39         C559   1.443   1_655  S
C40          C41   1.408       .  A
C40          H44   1.084   1_655  S
C41          C42   1.408       .  A
C41         C548   1.490       .  S
C42          H45   1.084       .  S
C46          C47   1.404       .  A
C46          C51   1.403       .  A
C46         C543   1.445       .  S
C47          C48   1.403       .  A
C47          H52   1.084       .  S
C48          C49   1.402       .  A
C48         C546   1.447   1_655  S
C49          C50   1.409       .  A
C49          H53   1.084   1_655  S
C50          C51   1.408       .  A
C50         C534   1.490       .  S
C51          H54   1.084       .  S
C55          C56   1.402       .  A
C55          C60   1.403       .  A
C55         C531   1.446       .  S
C56          C57   1.408       .  A
C56          H61   1.084       .  S
C57          C58   1.408   1_554  A
C57         C590   1.489       .  S
C58          C59   1.403       .  A
C58          H62   1.084       .  S
C59          C60   1.403   1_556  A
C59         C530   1.445       .  S
C60          H63   1.084   1_554  S
C64          C65   1.402       .  A
C64          C69   1.404       .  A
C64         C527   1.444       .  S
C65          C66   1.401   1_554  A
C65          H70   1.085       .  S
C66          C67   1.401       .  A
C66         C525   1.443       .  S
C67          C68   1.408       .  A
C67          H71   1.084       .  S
C68          C69   1.409   1_556  A
C68         C607   1.490       .  S
C69          H72   1.084       .  S
C73          C74   1.402       .  A
C73          C78   1.402   1_545  A
C73         C523   1.444       .  S
C74          C75   1.408   1_545  A
C74          H79   1.084       .  S
C75          C76   1.410       .  A
C75         C565   1.491       .  S
C76          C77   1.404       .  A
C76          H80   1.084       .  S
C77          C78   1.402       .  A
C77         C522   1.446       .  S
C78          H81   1.084       .  S
C82          C83   1.402   1_545  A
C82          C87   1.402       .  A
C82         C520   1.443       .  S
C83          C84   1.402       .  A
C83          H88   1.084       .  S
C84          C85   1.401       .  A
C84         C518   1.443       .  S
C85          C86   1.407       .  A
C85          H89   1.084       .  S
C86          C87   1.407   1_565  A
C86         C579   1.488   1_455  S
C87          H90   1.084       .  S
C91          C92   1.403       .  A
C91          C96   1.402       .  A
C91         C514   1.444       .  S
C92          C93   1.408       .  A
C92          H97   1.084       .  S
C93          C94   1.409       .  A
C93         C551   1.490       .  S
C94          C95   1.401       .  A
C94          H98   1.084   1_655  S
C95          C96   1.402       .  A
C95         C515   1.445   1_655  S
C96          H99   1.084       .  S
C100        C101   1.403       .  A
C100        C105   1.403       .  A
C100        C510   1.445       .  S
C101        C102   1.408       .  A
C101        H106   1.084       .  S
C102        C103   1.408       .  A
C102        C537   1.489       .  S
C103        C104   1.401       .  A
C103        H107   1.084   1_655  S
C104        C105   1.403       .  A
C104        C511   1.445   1_655  S
C105        H108   1.084       .  S
C109        C110   1.401       .  A
C109        C114   1.400       .  A
C109        C507   1.442       .  S
C110        C111   1.408       .  A
C110        H115   1.084       .  S
C111        C112   1.408       .  A
C111        C496   1.490       .  S
C112        C113   1.403       .  A
C112        H116   1.084       .  S
C113        C114   1.401       .  A
C113        C506   1.442       .  S
C114        H117   1.084       .  S
C118        C119   1.400       .  A
C118        C123   1.401       .  A
C118        C493   1.442       .  S
C119        C120   1.407       .  A
C119        H124   1.084       .  S
C120        C121   1.407       .  A
C120        C482   1.487       .  S
C121        C122   1.402       .  A
C121        H125   1.084       .  S
C122        C123   1.402       .  A
C122        C491   1.443       .  S
C123        H126   1.084       .  S
C127        C128   1.402       .  A
C127        C132   1.402       .  A
C127        C479   1.445       .  S
C128        C129   1.403       .  A
C128        H133   1.084       .  S
C129        C130   1.403       .  A
C129        C477   1.445       .  S
C130        C131   1.408       .  A
C130        H134   1.084       .  S
C131        C132   1.409       .  A
C131        C468   1.491       .  S
C132        H135   1.084       .  S
O136        C152   1.274       .  A
O136       Zn142   2.026       .  S
C137        C505   1.437       .  S
C137        O153   1.273       .  A
C137        O150   1.274       .  A
O138        C151   1.273       .  A
O138       Cd145   2.077       .  S
O139        C157   1.274       .  A
O139       Cd148   2.079       .  S
O140        C154   1.275       .  A
O140       Cd144   2.083       .  S
O141        C152   1.274       .  A
O141       Cd144   2.083       .  S
Zn142       O153   2.018       .  S
Zn142       O155   2.023       .  S
Zn142       O147   1.949       .  S
O143        C154   1.275       .  A
O143       Cd148   2.082       .  S
Cd144       O146   2.074       .  S
Cd144       O147   2.010       .  S
Cd145       O149   2.075       .  S
Cd145       O158   2.076       .  S
Cd145       O147   2.011       .  S
O146        C156   1.274       .  A
O147       Cd148   2.010       .  S
Cd148       O150   2.077       .  S
O149        C156   1.274       .  A
C151        C465   1.438       .  S
C151        O155   1.273       .  A
C152        C480   1.441       .  S
C154        C545   1.442       .  S
C156        C573   1.437       .  S
C157        C526   1.439       .  S
C157        O158   1.274       .  A
C159        C160   1.401       .  A
C159        C164   1.401       .  A
C159        C463   1.443       .  S
C160        C161   1.408       .  A
C160        H165   1.084       .  S
C161        C162   1.409       .  A
C161        C452   1.490       .  S
C162        C163   1.403       .  A
C162        H166   1.084       .  S
C163        C164   1.402       .  A
C163        C461   1.444       .  S
C164        H167   1.085       .  S
C168        C169   1.402       .  A
C168        C173   1.400       .  A
C168        C466   1.442       .  S
C169        C170   1.402       .  A
C169        H174   1.084       .  S
C170        C171   1.402       .  A
C170        C449   1.442       .  S
C171        C172   1.407       .  A
C171        H175   1.084       .  S
C172        C173   1.407       .  A
C172        C440   1.487       .  S
C173        H176   1.084       .  S
O177        C193   1.273       .  A
O177       Zn183   2.022       .  S
C178        C464   1.439       .  S
C178        O194   1.273       .  A
C178        O191   1.274       .  A
O179        C192   1.274       .  A
O179       Cd186   2.081       .  S
O180        C198   1.274       .  A
O180       Cd189   2.077       .  S
O181        C195   1.275       .  A
O181       Cd185   2.082       .  S
O182        C193   1.275       .  A
O182       Cd185   2.084       .  S
Zn183       O194   2.020       .  S
Zn183       O196   2.019       .  S
Zn183       O188   1.949       .  S
O184        C195   1.274       .  A
O184       Cd189   2.077       .  S
Cd185       O187   2.082       .  S
Cd185       O188   2.011       .  S
Cd186       O190   2.078       .  S
Cd186       O199   2.080       .  S
Cd186       O188   2.012       .  S
O187        C197   1.275       .  A
O188       Cd189   2.010       .  S
Cd189       O191   2.082       .  S
O190        C197   1.274       .  A
C192        C450   1.438       .  S
C192        O196   1.273       .  A
C193        C438   1.440       .  S
C195        C544   1.440       .  S
C197        C599   1.440       .  S
C198        C524   1.439       .  S
C198        O199   1.275       .  A
C200        C201   1.400       .  A
C200        C205   1.403       .  A
C200        C435   1.445       .  S
C201        C202   1.408       .  A
C201        H206   1.084       .  S
C202        C203   1.408       .  A
C202        C471   1.491       .  S
C203        C204   1.404       .  A
C203        H207   1.084       .  S
C204        C205   1.404       .  A
C204        C434   1.446       .  S
C205        H208   1.084       .  S
O209        C225   1.273       .  A
O209       Zn215   2.024       .  S
C210        C572   1.438       .  S
C210        O226   1.273       .  A
C210        O223   1.274       .  A
O211        C224   1.275       .  A
O211       Cd218   2.085       .  S
O212        C230   1.274       .  A
O212       Cd221   2.077       .  S
O213        C227   1.274       .  A
O213       Cd217   2.078       .  S
O214        C225   1.273       .  A
O214       Cd217   2.076       .  S
Zn215       O226   2.021       .  S
Zn215       O228   2.025       .  S
Zn215       O220   1.950       .  S
O216        C227   1.274       .  A
O216       Cd221   2.078       .  S
Cd217       O219   2.072       .  S
Cd217       O220   2.010       .  S
Cd218       O222   2.082       .  S
Cd218       O231   2.085       .  S
Cd218       O220   2.012       .  S
O219        C229   1.274       .  A
O220       Cd221   2.010       .  S
Cd221       O223   2.077       .  S
O222        C229   1.275       .  A
C224        C516   1.441       .  S
C224        O228   1.274       .  A
C225        C614   1.438       .  S
C227        C432   1.439       .  S
C229        C508   1.438       .  S
C230        C436   1.441       .  S
C230        O231   1.276       .  A
C232        C233   1.403       .  A
C232        C237   1.402       .  A
C232        C429   1.445       .  S
C233        C234   1.403       .  A
C233        H238   1.084       .  S
C234        C235   1.402       .  A
C234        C437   1.445       .  S
C235        C236   1.408       .  A
C235        H239   1.084       .  S
C236        C237   1.408       .  A
C236        C499   1.490       .  S
C237        H240   1.084       .  S
C241        C242   1.402       .  A
C241        C246   1.401       .  A
C241        C431   1.444       .  S
C242        C243   1.403       .  A
C242        H247   1.084       .  S
C243        C244   1.403       .  A
C243        C427   1.446       .  S
C244        C245   1.408       .  A
C244        H248   1.084       .  S
C245        C246   1.408       .  A
C245        C418   1.490       .  S
C246        H249   1.084       .  S
C250        C251   1.402       .  A
C250        C255   1.401       .  A
C250        C413   1.444       .  S
C251        C252   1.409       .  A
C251        H256   1.084       .  S
C252        C253   1.408       .  A
C252        C455   1.490       .  S
C253        C254   1.402       .  A
C253        H257   1.084       .  S
C254        C255   1.401       .  A
C254        C415   1.442       .  S
C255        H258   1.085       .  S
O259        C275   1.273       .  A
O259       Zn265   2.023       .  S
C260        C529   1.441       .  S
C260        O276   1.273       .  A
C260        O273   1.275       .  A
O261        C274   1.274       .  A
O261       Cd268   2.080       .  S
O262        C280   1.275       .  A
O262       Cd271   2.083       .  S
O263        C277   1.275       .  A
O263       Cd267   2.083       .  S
O264        C275   1.275       .  A
O264       Cd267   2.089       .  S
Zn265       O276   2.022       .  S
Zn265       O278   2.022       .  S
Zn265       O270   1.950       .  S
O266        C277   1.275       .  A
O266       Cd271   2.081       .  S
Cd267       O269   2.083       .  S
Cd267       O270   2.013       .  S
Cd268       O272   2.074       .  S
Cd268       O281   2.078       .  S
Cd268       O270   2.011       .  S
O269        C279   1.275       .  A
O270       Cd271   2.013       .  S
Cd271       O273   2.085       .  S
O272        C279   1.274       .  A
C274        C513   1.439       .  S
C274        O278   1.273       .  A
C275        C521   1.442       .  S
C277        C428   1.441       .  S
C279        C414   1.439       .  S
C280        C430   1.441       .  S
C280        O281   1.274       .  A
C282        C283   1.401       .  A
C282        C287   1.400       .  A
C282        C412   1.441       .  S
C283        C284   1.402       .  A
C283        H288   1.084       .  S
C284        C285   1.402       .  A
C284        C409   1.442       .  S
C285        C286   1.407       .  A
C285        H289   1.084       .  S
C286        C287   1.406       .  A
C286        C443   1.486       .  S
C287        H290   1.084       .  S
O291        C307   1.272       .  A
O291       Zn297   2.018       .  S
C292        C410   1.437       .  S
C292        O308   1.272       .  A
C292        O305   1.274       .  A
O293        C306   1.274       .  A
O293       Cd300   2.081       .  S
O294        C312   1.275       .  A
O294       Cd303   2.080       .  S
O295        C309   1.274       .  A
O295       Cd299   2.079       .  S
O296        C307   1.274       .  A
O296       Cd299   2.083       .  S
Zn297       O308   2.015       .  S
Zn297       O310   2.020       .  S
Zn297       O302   1.948       .  S
O298        C309   1.275       .  A
O298       Cd303   2.079       .  S
Cd299       O301   2.079       .  S
Cd299       O302   2.011       .  S
Cd300       O304   2.077       .  S
Cd300       O313   2.074       .  S
Cd300       O302   2.010       .  S
O301        C311   1.275       .  A
O302       Cd303   2.011       .  S
Cd303       O305   2.082       .  S
O304        C311   1.274       .  A
C306        C462   1.439       .  S
C306        O310   1.273       .  A
C307        C407   1.439       .  S
C309        C601   1.439       .  S
C311        C509   1.440       .  S
C312        C587   1.438       .  S
C312        O313   1.274       .  A
C314        C315   1.402       .  A
C314        C319   1.401       .  A
C314        C403   1.443       .  S
C315        C316   1.408       .  A
C315        H320   1.084       .  S
C316        C317   1.408       .  A
C316        C421   1.490       .  S
C317        C318   1.402       .  A
C317        H321   1.084       .  S
C318        C319   1.401       .  A
C318        C405   1.443       .  S
C319        H322   1.084       .  S
C323        C324   1.400       .  A
C323        C328   1.402       .  A
C323        C401   1.442       .  S
C324        C325   1.407       .  A
C324        H329   1.084       .  S
C325        C326   1.407       .  A
C325        C485   1.487       .  S
C326        C327   1.402       .  A
C326        H330   1.084       .  S
C327        C328   1.402       .  A
C327        C408   1.444       .  S
C328        H331   1.084       .  S
O332        C348   1.273       .  A
O332       Zn338   2.020       .  S
C333        C406   1.439       .  S
C333        O349   1.273       .  A
C333        O346   1.274       .  A
O334        C347   1.274       .  A
O334       Cd341   2.080       .  S
O335        C353   1.275       .  A
O335       Cd344   2.079       .  S
O336        C350   1.274       .  A
O336       Cd340   2.073       .  S
O337        C348   1.274       .  A
O337       Cd340   2.078       .  S
Zn338       O349   2.021       .  S
Zn338       O351   2.018       .  S
Zn338       O343   1.948       .  S
O339        C350   1.274       .  A
O339       Cd344   2.074       .  S
Cd340       O342   2.079       .  S
Cd340       O343   2.010       .  S
Cd341       O345   2.076       .  S
Cd341       O354   2.082       .  S
Cd341       O343   2.010       .  S
O342        C352   1.274       .  A
O343       Cd344   2.010       .  S
Cd344       O346   2.081       .  S
O345        C352   1.274       .  A
C347        C402   1.437       .  S
C347        O351   1.273       .  A
C348        C416   1.438       .  S
C350        C585   1.436       .  S
C352        C558   1.439       .  S
C353        C532   1.441       .  S
C353        O354   1.275       .  A
O355        C371   1.274       .  A
O355       Zn361   2.024       .  S
C356        C517   1.439       .  S
C356        O372   1.273       .  A
C356        O369   1.274       .  A
O357        C370   1.274       .  A
O357       Cd364   2.082       .  S
O358        C376   1.274       .  A
O358       Cd367   2.074       .  S
O359        C373   1.274       .  A
O359       Cd363   2.079       .  S
O360        C371   1.274       .  A
O360       Cd363   2.076       .  S
Zn361       O372   2.021       .  S
Zn361       O374   2.024       .  S
Zn361       O366   1.949       .  S
O362        C373   1.274       .  A
O362       Cd367   2.081       .  S
Cd363       O365   2.075       .  S
Cd363       O366   2.010       .  S
Cd364       O368   2.078       .  S
Cd364       O377   2.080       .  S
Cd364       O366   2.012       .  S
O365        C375   1.274       .  A
O366       Cd367   2.010       .  S
Cd367       O369   2.080       .  S
O368        C375   1.275       .  A
C370        C616   1.440       .  S
C370        O374   1.273       .  A
C371        C560   1.438       .  S
C373        C433   1.441       .  S
C375        C494   1.437       .  S
C376        C404   1.438       .  S
C376        O377   1.275       .  A
O378        C394   1.273       .  A
O378       Zn384   2.020       .  S
C379        C478   1.440       .  S
C379        O395   1.274       .  A
C379        O392   1.274       .  A
O380        C393   1.273       .  A
O380       Cd387   2.075       .  S
O381        C399   1.274       .  A
O381       Cd390   2.078       .  S
O382        C396   1.275       .  A
O382       Cd386   2.081       .  S
O383        C394   1.275       .  A
O383       Cd386   2.081       .  S
Zn384       O395   2.027       .  S
Zn384       O397   2.021       .  S
Zn384       O389   1.949       .  S
O385        C396   1.274       .  A
O385       Cd390   2.077       .  S
Cd386       O388   2.083       .  S
Cd386       O389   2.011       .  S
Cd387       O391   2.074       .  S
Cd387       O400   2.074       .  S
Cd387       O389   2.009       .  S
O388        C398   1.275       .  A
O389       Cd390   2.010       .  S
Cd390       O392   2.082       .  S
O391        C398   1.273       .  A
C393        C411   1.436       .  S
C393        O397   1.273       .  A
C394        C492   1.438       .  S
C396        C512   1.440       .  S
C398        C528   1.440       .  S
C399        C519   1.438       .  S
C399        O400   1.274       .  A
C401        C402   1.207       .  T
C403        C404   1.208       .  T
C405        C406   1.208       .  T
C407        C408   1.208       .  T
C409        C410   1.207       .  T
C411        C412   1.207       .  T
C413        C414   1.208       .  T
C415        C416   1.207       .  T
C417        C418   1.406       .  A
C417        C422   1.398       .  A
C417        H423   1.083       .  S
C418        C419   1.406       .  A
C419        C420   1.400       .  A
C419        H424   1.083       .  S
C420        C421   1.407       .  A
C420        H425   1.083       .  S
C421        C422   1.406       .  A
C422        H426   1.083       .  S
C427        C428   1.209       .  T
C429        C430   1.209       .  T
C431        C432   1.208       .  T
C433        C434   1.209       .  T
C435        C436   1.209       .  T
C437        C438   1.209       .  T
C439        C440   1.406       .  A
C439        C444   1.399       .  A
C439        H445   1.083       .  S
C440        C441   1.406       .  A
C441        C442   1.396       .  A
C441        H446   1.083       .  S
C442        C443   1.406       .  A
C442        H447   1.083       .  S
C443        C444   1.406       .  A
C444        H448   1.083       .  S
C449        C450   1.207       .  T
C451        C452   1.406       .  A
C451        C456   1.397       .  A
C451        H457   1.083       .  S
C452        C453   1.407       .  A
C453        C454   1.401       .  A
C453        H458   1.083       .  S
C454        C455   1.407       .  A
C454        H459   1.083       .  S
C455        C456   1.406       .  A
C456        H460   1.083       .  S
C461        C462   1.208       .  T
C463        C464   1.208       .  T
C465        C466   1.207       .  T
C467        C468   1.408       .  A
C467        C472   1.402       .  A
C467        H473   1.083       .  S
C468        C469   1.405       .  A
C469        C470   1.396       .  A
C469        H474   1.083       .  S
C470        C471   1.406       .  A
C470        H475   1.083       .  S
C471        C472   1.407       .  A
C472        H476   1.083       .  S
C477        C478   1.209       .  T
C479        C480   1.209       .  T
C481        C482   1.406       .  A
C481        C486   1.397       .  A
C481        H487   1.083       .  S
C482        C483   1.406       .  A
C483        C484   1.399       .  A
C483        H488   1.083       .  S
C484        C485   1.406       .  A
C484        H489   1.083       .  S
C485        C486   1.406       .  A
C486        H490   1.083       .  S
C491        C492   1.208       .  T
C493        C494   1.207       .  T
C495        C496   1.406       .  A
C495        C500   1.397       .  A
C495        H501   1.083       .  S
C496        C497   1.407       .  A
C497        C498   1.401       .  A
C497        H502   1.083       .  S
C498        C499   1.407       .  A
C498        H503   1.083       .  S
C499        C500   1.406       .  A
C500        H504   1.083       .  S
C505        C506   1.207       .  T
C507        C508   1.207       .  T
C509        C510   1.209       .  T
C511        C512   1.209       .  T
C513        C514   1.208       .  T
C515        C516   1.209       .  T
C517        C518   1.208       .  T
C519        C520   1.208       .  T
C521        C522   1.210       .  T
C523        C524   1.208       .  T
C525        C526   1.208       .  T
C527        C528   1.209       .  T
C529        C530   1.209       .  T
C531        C532   1.209       .  T
C533        C534   1.406       .  A
C533        C538   1.396   1_556  A
C533        H539   1.083       .  S
C534        C535   1.407       .  A
C535        C536   1.401   1_556  A
C535        H540   1.083       .  S
C536        C537   1.407       .  A
C536        H541   1.083       .  S
C537        C538   1.405       .  A
C538        H542   1.083       .  S
C543        C544   1.209       .  T
C545        C546   1.210       .  T
C547        C548   1.406       .  A
C547        C552   1.396   1_554  A
C547        H553   1.083       .  S
C548        C549   1.407       .  A
C549        C550   1.402   1_554  A
C549        H554   1.083       .  S
C550        C551   1.407       .  A
C550        H555   1.083       .  S
C551        C552   1.406       .  A
C552        H556   1.083       .  S
C557        C558   1.208       .  T
C559        C560   1.208       .  T
C561        C562   1.406   1_545  A
C561        C566   1.398       .  A
C561        H567   1.083       .  S
C562        C563   1.407       .  A
C563        C564   1.401       .  A
C563        H568   1.083       .  S
C564        C565   1.407       .  A
C564        H569   1.083       .  S
C565        C566   1.407   1_565  A
C566        H570   1.083       .  S
C571        C572   1.207       .  T
C573        C574   1.207       .  T
C575        C576   1.406   1_545  A
C575        C580   1.400       .  A
C575        H581   1.083       .  S
C576        C577   1.406       .  A
C577        C578   1.397       .  A
C577        H582   1.083       .  S
C578        C579   1.406       .  A
C578        H583   1.083       .  S
C579        C580   1.406   1_565  A
C580        H584   1.083       .  S
C585        C586   1.206       .  T
C587        C588   1.207       .  T
C589        C590   1.407   1_556  A
C589        C594   1.401   1_565  A
C589        H595   1.083       .  S
C590        C591   1.405       .  A
C591        C592   1.396   1_565  A
C591        H596   1.083       .  S
C592        C593   1.406       .  A
C592        H597   1.083       .  S
C593        C594   1.407   1_554  A
C594        H598   1.083       .  S
C599        C600   1.209       .  T
C601        C602   1.208       .  T
C603        C604   1.407   1_554  A
C603        C608   1.402   1_565  A
C603        H609   1.083       .  S
C604        C605   1.406       .  A
C605        C606   1.397   1_565  A
C605        H610   1.083       .  S
C606        C607   1.406       .  A
C606        H611   1.083       .  S
C607        C608   1.407   1_556  A
C608        H612   1.083       .  S
C613        C614   1.208       .  T
C615        C616   1.209       .  T
