geometry optimzed in LAMMPS
_audit_creation_date              2020-11-30 
_audit_creation_method            'lammps2cif' 
_symmetry_space_group_name_H-M    'P1' 
_symmetry_Int_Tables_number       1 
_symmetry_cell_setting            triclinic 
loop_ 
_symmetry_equiv_pos_as_xyz 
  x,y,z 
_cell_length_a                    25.74616692 
_cell_length_b                    25.772934587702025 
_cell_length_c                    26.393309411447945 
_cell_angle_alpha                 89.66839517765122 
_cell_angle_beta                  89.81387994591059 
_cell_angle_gamma                 89.49115596705376 
loop_ 
_atom_site_label 
_atom_site_type_symbol 
_atom_site_fract_x 
_atom_site_fract_y 
_atom_site_fract_z 
_atom_site_charge 
C1          C  0.86737685  0.86727154  0.86678417    -0.01800
C2          C  0.98292311  0.98739260  0.46935659     0.43100
N3          N  0.95958723  0.93200285  0.41680252     0.02000
C4          C  0.75839167  0.93322483  0.25597605    -0.05900
H5          H  0.69786000  0.91454882  0.44711160     0.07500
C6          C  0.80548199  0.74137553  0.44265219    -0.06200
Co7        Co  0.86747673  0.96861676  0.36178813     0.74200
N8          N  0.77145525  0.92730399  0.41021035    -0.25400
Co9        Co  0.77689252  0.87030785  0.35355404     0.74100
C10         C  0.75595452  0.75837760  0.46289519     0.43200
N11         N  0.93304612  0.77928281  0.41278853     0.01600
N12         N  0.77807861  0.81200854  0.40673047     0.01700
N13         N  0.81489471  0.99895771  0.26675969    -0.46300
H14         H  0.91216531  0.04022924  0.45487193     0.07500
N15         N  0.80651353  0.96398392  0.41442674     0.02000
N16         N  0.78086799  0.81290839  0.29755762     0.01700
C17         C  0.75735154  0.75594615  0.24218554     0.43300
N18         N  0.96604437  0.81800542  0.41486826    -0.24900
C19         C  0.93868608  0.00904505  0.27322766    -0.05800
N20         N  0.99756932  0.94290166  0.44781146    -0.46000
N21         N  0.74359312  0.80108209  0.26492994    -0.46200
C22         C  0.98725166  0.99145022  0.24923036     0.43100
N23         N  0.81567252  0.96602099  0.30483558     0.02000
N24         N  0.96790310  0.82460325  0.30596829    -0.24900
N25         N  0.92210594  0.96718692  0.41692487    -0.25400
N26         N  0.93343222  0.78745532  0.30221086     0.01600
H27         H  0.03539218  0.84568958  0.26248057     0.07500
H28         H  0.82862101  0.70445037  0.26109902     0.07600
N29         N  0.78253026  0.92780187  0.30002183    -0.25400
N30         N  0.81603110  0.77708930  0.40765515    -0.25000
N31         N  0.96465633  0.93736162  0.30786611     0.02000
C32         C  0.74825477  0.98415618  0.47065232     0.43400
C33         C  0.00086032  0.80830032  0.45138548    -0.06300
N34         N  0.81830113  0.77771934  0.29888789    -0.25000
H35         H  0.82817866  0.70679451  0.45066736     0.07500
N36         N  0.79405908  0.99867387  0.44957576    -0.46300
H37         H  0.03317934  0.83305416  0.46047773     0.07500
C38         C  0.98399922  0.77782385  0.23960381     0.43200
C39         C  0.93312863  0.00402364  0.44999243    -0.05800
Co40       Co  0.96530403  0.87780820  0.36167112     0.73800
N41         N  0.94486573  0.74172852  0.44578736    -0.46000
C42         C  0.78031726  0.98017295  0.23432566     0.43500
N43         N  0.00086983  0.94693294  0.27332969    -0.46000
Co44       Co  0.87557669  0.77901581  0.35548132     0.73900
C45         C  0.80711253  0.74041329  0.26527784    -0.06300
C46         C  0.73324872  0.93666351  0.44393817    -0.05900
N47         N  0.92778121  0.97298090  0.30862415    -0.25400
N48         N  0.74072597  0.80211915  0.43945348    -0.46200
H49         H  0.72843348  0.90819234  0.24149171     0.07500
C50         C  0.00197822  0.82124207  0.26832590    -0.06300
Cl51       Cl  0.87119543  0.87374132  0.35856473    -0.49300
C52         C  0.98758837  0.75714422  0.47174703     0.43300
H53         H  0.91634608  0.04410854  0.26649943     0.07500
N54         N  0.94200036  0.75775211  0.26272216    -0.46000
C55         C  0.74910364  0.47790692  0.98189298     0.43100
N56         N  0.77179544  0.41855952  0.92900767     0.02000
C57         C  0.00834987  0.28643596  0.92896012    -0.05900
H58         H  0.02733122  0.47400675  0.90196213     0.07500
C59         C  0.92908388  0.45787229  0.72857401    -0.06200
Co60       Co  0.87260031  0.36892256  0.95678722     0.74200
N61         N  0.95797331  0.42960730  0.91293631    -0.25400
Co62       Co  0.96122872  0.37312135  0.85925831     0.74100
C63         C  0.97924803  0.48176289  0.74127099     0.43200
N64         N  0.80372528  0.42257746  0.78021584     0.01600
N65         N  0.95647901  0.42700905  0.79995638     0.01700
N66         N  0.94848912  0.28448248  0.99154111    -0.46300
H67         H  0.82353623  0.46595068  0.02864381     0.07500
N68         N  0.92332374  0.42768961  0.94982978     0.02000
N69         N  0.95768763  0.31502020  0.80800612     0.01700
C70         C  0.97152027  0.24303835  0.77275667     0.43300
N71         N  0.76924272  0.42025172  0.81732824    -0.24900
C72         C  0.82171992  0.27045657  0.99137584    -0.05800
N73         N  0.73356486  0.45142588  0.94058330    -0.46000
N74         N  0.99028097  0.27563245  0.80707856    -0.46200
C75         C  0.77809144  0.24045723  0.97568965     0.43100
N76         N  0.93456433  0.31686333  0.95473512     0.02000
N77         N  0.77024739  0.30747753  0.81395297    -0.24900
N78         N  0.81070308  0.42090475  0.96107242    -0.25400
N79         N  0.80299301  0.30917524  0.77557192     0.01600
H80         H  0.70134567  0.26322578  0.82877486     0.07500
H81         H  0.89982470  0.25211914  0.72131339     0.07600
N82         N  0.96891364  0.31899937  0.91785097    -0.25400
N83         N  0.91872695  0.42423128  0.76658889    -0.25000
N84         N  0.78365854  0.30552104  0.92644207     0.02000
C85         C  0.97426709  0.48607785  0.97123614     0.43400
C86         C  0.73878808  0.46224706  0.81518407    -0.06300
N87         N  0.91925570  0.31100772  0.77531945    -0.25000
H88         H  0.90591115  0.46259971  0.69477136     0.07500
N89         N  0.93197524  0.46081921  0.98612999    -0.46300
H90         H  0.70729017  0.47155718  0.84086018     0.07500
C91         C  0.74664712  0.25099159  0.75399374     0.43200
C92         C  0.79988906  0.45707933  0.99607608    -0.05800
Co93       Co  0.77213081  0.36251919  0.87171010     0.73800
N94         N  0.79879782  0.46491041  0.75247298    -0.46000
C95         C  0.99454354  0.26317914  0.97793860     0.43500
N96         N  0.75521970  0.26433231  0.93578536    -0.46000
Co97       Co  0.86098141  0.36670404  0.77269229     0.73900
C98         C  0.92493266  0.26632809  0.75075637    -0.06300
C99         C  0.99187457  0.46658089  0.92278253    -0.05900
N100        N  0.82216766  0.30969573  0.95883033    -0.25400
N101        N  0.99336392  0.45999741  0.78609547    -0.46200
H102        H  0.04377959  0.28234612  0.90715964     0.07500
C103        C  0.73412128  0.27150088  0.80445951    -0.06300
Cl104      Cl  0.86664659  0.36789287  0.86494221    -0.49300
C105        C  0.75941713  0.49214179  0.77318244     0.43300
H106        H  0.84760723  0.26496440  0.02319563     0.07500
N107        N  0.79002609  0.27657178  0.73882100    -0.46000
C108        C  0.48434122  0.97227568  0.97359670     0.43100
N109        N  0.42666316  0.95286154  0.92145309     0.02000
C110        C  0.25425533  0.75797752  0.92496284    -0.05900
H111        H  0.45268334  0.69358623  0.90220113     0.07500
C112        C  0.45777481  0.80612771  0.74525671    -0.06200
Co113      Co  0.36690580  0.86322285  0.95792915     0.74200
N114        N  0.41294277  0.76548686  0.91779129    -0.25400
Co115      Co  0.35552676  0.77348041  0.86147222     0.74100
C116        C  0.48007143  0.75811330  0.76487323     0.43200
N117        N  0.41970654  0.93008934  0.77308994     0.01600
N118        N  0.41177879  0.77459079  0.80635679     0.01700
N119        N  0.26825813  0.81542201  0.98783702    -0.46300
H120        H  0.46671928  0.90270306  0.02538615     0.07500
N121        N  0.41759245  0.79989953  0.95406972     0.02000
N122        N  0.29957982  0.77913320  0.80364059     0.01700
C123        C  0.24469050  0.75855091  0.74528661     0.43300
N124        N  0.42196354  0.96343507  0.81061433    -0.24900
C125        C  0.28222878  0.93740991  0.00168541    -0.05800
N126        N  0.46109446  0.98852474  0.93117895    -0.46000
N127        N  0.26632793  0.74265439  0.78961206    -0.46200
C128        C  0.26094168  0.98804628  0.98784162     0.43100
N129        N  0.30641381  0.81440981  0.95488690     0.02000
N130        N  0.30932112  0.96415054  0.81970806    -0.24900
N131        N  0.42600192  0.91516076  0.95550144    -0.25400
N132        N  0.30590273  0.93048213  0.78252426     0.01600
H133        H  0.25906528  0.02523257  0.84657525     0.07500
H134        H  0.26637601  0.82986084  0.69732553     0.07600
N135        N  0.29986299  0.78095524  0.91788681    -0.25400
N136        N  0.41543375  0.81337545  0.77352315    -0.25000
N137        N  0.31544533  0.96352064  0.93067086     0.02000
C138        C  0.47443375  0.74053749  0.97366766     0.43400
C139        C  0.45848050  0.99891523  0.79988306    -0.06300
N140        N  0.30284930  0.81694810  0.76997756    -0.25000
H141        H  0.47074066  0.83085904  0.71456249     0.07500
N142        N  0.45293276  0.78629043  0.98825598    -0.46300
H143        H  0.46696858  0.03265994  0.82246528     0.07500
C144        C  0.23631837  0.97518835  0.77904036     0.43200
C145        C  0.46201682  0.92380728  0.99015727    -0.05800
Co146      Co  0.36853089  0.96202920  0.87033141     0.73800
N147        N  0.45242006  0.94202497  0.73560263    -0.46000
C148        C  0.23370050  0.78150842  0.97120769     0.43500
N149        N  0.28398221  0.00237603  0.94385312    -0.46000
Co150      Co  0.36117336  0.87300711  0.77321472     0.73900
C151        C  0.26948396  0.80756088  0.73205046    -0.06300
C152        C  0.44766147  0.72701999  0.92624316    -0.05900
N153        N  0.31550598  0.92550985  0.96413746    -0.25400
N154        N  0.44916811  0.73985959  0.80160960    -0.46200
H155        H  0.23815101  0.72781085  0.90158223     0.07500
C156        C  0.26716564  0.99408694  0.82035971    -0.06300
Cl157      Cl  0.36330910  0.86781970  0.86558451    -0.49300
C158        C  0.47928715  0.98450489  0.75029855     0.43300
H159        H  0.27583910  0.91471692  0.03569856     0.07500
N160        N  0.26249942  0.93591932  0.75685015    -0.46000
C161        C  0.37055329  0.37068367  0.87005920    -0.01800
C162        C  0.36973190  0.87045678  0.36856118    -0.01800
C163        C  0.87626515  0.36793617  0.37100254    -0.01800
C164        C  0.00194795  0.99376115  0.72534502     0.43100
N165        N  0.02547323  0.05246632  0.67141649     0.02000
C166        C  0.25988217  0.05330138  0.53891457    -0.05900
H167        H  0.25985154  0.08123516  0.74330206     0.07500
C168        C  0.18184412  0.24899346  0.72146998    -0.06200
Co169      Co  0.12379293  0.02382212  0.61793064     0.74200
N170        N  0.20806531  0.06236653  0.68251043    -0.25400
Co171      Co  0.21498850  0.12118583  0.62994748     0.74100
C172        C  0.23149644  0.23399728  0.74419173     0.43200
N173        N  0.05717308  0.20279859  0.68229368     0.01600
N174        N  0.21035781  0.17809888  0.68708999     0.01700
N175        N  0.19682295  0.99406143  0.53181767    -0.46300
H176        H  0.07337713  0.94295741  0.70565415     0.07500
N177        N  0.17462096  0.02452647  0.67635267     0.02000
N178        N  0.21381694  0.18096300  0.57796651     0.01700
C179        C  0.23488125  0.23532254  0.52190080     0.43300
N180        N  0.02283335  0.16563923  0.67748406    -0.24900
C181        C  0.06378440  0.99723326  0.52212302    -0.05800
N182        N  0.98830431  0.03994198  0.70415986    -0.46000
N183        N  0.25050758  0.19126149  0.54464708    -0.46200
C184        C  0.01605417  0.01668124  0.50017782     0.43100
N185        N  0.18526829  0.02890118  0.56694992     0.02000
N186        N  0.02570072  0.17578375  0.56852546    -0.24900
N187        N  0.06258537  0.01720284  0.66923418    -0.25400
N188        N  0.05930261  0.21391017  0.57149985     0.01600
H189        H  0.95903540  0.16268691  0.52106037     0.07500
H190        H  0.16240307  0.28622287  0.53524476     0.07600
N191        N  0.22131797  0.06440056  0.57209651    -0.25400
N192        N  0.17207064  0.21247234  0.68664965    -0.25000
N193        N  0.03311915  0.06333314  0.56241859     0.02000
C194        C  0.20706774  0.00977058  0.74839150     0.43400
C195        C  0.98852596  0.16800320  0.71500282    -0.06300
N196        N  0.17578927  0.21587758  0.57792958    -0.25000
H197        H  0.15951429  0.28427743  0.72682249     0.07500
N198        N  0.17357805  0.99153182  0.71444438    -0.46300
H199        H  0.95508215  0.14338821  0.71993882     0.07500
C200        C  0.00824776  0.23570061  0.51000257     0.43200
C201        C  0.05113207  0.97848547  0.70145185    -0.05800
Co202      Co  0.02578862  0.11445992  0.61996460     0.73800
N203        N  0.04811442  0.23160948  0.72234708    -0.46000
C204        C  0.24337427  0.00625366  0.51136807     0.43500
N205        N  0.99865244  0.05731242  0.52655310    -0.46000
Co206      Co  0.11571317  0.21261240  0.62959423     0.73900
C207        C  0.18571579  0.25202103  0.54312711    -0.06300
C208        C  0.23054603  0.05635742  0.72742203    -0.05900
N209        N  0.07091016  0.02859186  0.56108038    -0.25400
N210        N  0.24737244  0.19035693  0.71993205    -0.46200
H211        H  0.29622054  0.07387024  0.53670909     0.07500
C212        C  0.99216270  0.18600436  0.53093153    -0.06300
Cl213      Cl  0.12027566  0.11823788  0.62411166    -0.49300
C214        C  0.00590389  0.21103117  0.74473313     0.43300
H215        H  0.08653368  0.96292873  0.51335299     0.07500
N216        N  0.04939542  0.25146434  0.53791293    -0.46000
C217        C  0.20432873  0.75294267  0.00688540     0.43100
N218        N  0.20117699  0.68650538  0.05465537     0.02000
C219        C  0.99063219  0.52781606  0.05634012    -0.05900
H220        H  0.94303110  0.71154322  0.07983912     0.07500
C221        C  0.06433782  0.72224015  0.23187496    -0.06200
Co222      Co  0.11202026  0.62294833  0.02459523     0.74200
N223        N  0.01649023  0.67262265  0.06601109    -0.25400
Co224      Co  0.02568082  0.61683063  0.12303990     0.74100
C225        C  0.01741307  0.74565318  0.21093389     0.43200
N226        N  0.18400883  0.68096596  0.20518101     0.01600
N227        N  0.02992848  0.67365929  0.17542122     0.01700
N228        N  0.04993289  0.53423028  0.99245318    -0.46300
H229        H  0.13431883  0.72827891  0.96029604     0.07500
N230        N  0.04995410  0.67510561  0.02834443     0.02000
N231        N  0.03290873  0.56137755  0.18063000     0.01700
C232        C  0.01204532  0.50603671  0.23920849     0.43300
N233        N  0.21774210  0.68357335  0.16758823    -0.24900
C234        C  0.18227953  0.53418428  0.98426963    -0.05800
N235        N  0.22831968  0.72862838  0.04591239    -0.46000
N236        N  0.99692478  0.52752252  0.19460016    -0.46200
C237        C  0.23421251  0.51355467  0.99506393     0.43100
N238        N  0.06111495  0.56428514  0.03060082     0.02000
N239        N  0.22010649  0.57088359  0.16198513    -0.24900
N240        N  0.16215228  0.68230670  0.02286462    -0.25400
N241        N  0.18569913  0.56772482  0.19911283     0.01600
H242        H  0.28555934  0.52312147  0.14051390     0.07500
H243        H  0.08390403  0.52825012  0.28629916     0.07600
N244        N  0.02693359  0.56194240  0.06786385    -0.25400
N245        N  0.06910230  0.67753957  0.20718753    -0.25000
N246        N  0.21410180  0.57333394  0.04942051     0.02000
C247        C  0.99113503  0.73125416  0.00867753     0.43400
C248        C  0.25341177  0.71974787  0.17937569    -0.06300
N249        N  0.07096727  0.56458611  0.21363422    -0.25000
H250        H  0.09052066  0.73673551  0.26032764     0.07500
N251        N  0.03579333  0.70884124  0.99275759    -0.46300
H252        H  0.28794036  0.72825805  0.15752872     0.07500
C253        C  0.23376723  0.50111936  0.20825512     0.43200
C254        C  0.16105335  0.72242004  0.99136548    -0.05800
Co255      Co  0.21514149  0.62896956  0.10815361     0.73800
N256        N  0.19499701  0.71321222  0.24273760    -0.46000
C257        C  0.00640913  0.51066470  0.00651128     0.43500
N258        N  0.25136632  0.53983189  0.03623617    -0.46000
Co259      Co  0.12759960  0.62261545  0.20774557     0.73900
C260        C  0.06142199  0.53115390  0.25186872    -0.06300
C261        C  0.97759954  0.70661801  0.05692726    -0.05900
N262        N  0.17375806  0.57101804  0.01905465    -0.25400
N263        N  0.99759156  0.71318967  0.17710820    -0.46200
H264        H  0.95475445  0.52167001  0.07688130     0.07500
C265        C  0.25301116  0.53079531  0.16539602    -0.06300
Cl266      Cl  0.12025116  0.62261629  0.11600511    -0.49300
C267        C  0.23761504  0.74030852  0.22913089     0.43300
H268        H  0.15573302  0.52438358  0.95424617     0.07500
N269        N  0.19280629  0.52658179  0.22802468    -0.46000
C270        C  0.73192127  0.00171543  0.00049752     0.43100
N271        N  0.67368028  0.02476905  0.05552956     0.02000
C272        C  0.53695178  0.25776024  0.05356063    -0.05900
H273        H  0.74181598  0.26541954  0.08006844     0.07500
C274        C  0.71480382  0.18111588  0.25135633    -0.06200
Co275      Co  0.61965686  0.12245666  0.02595059     0.74200
N276        N  0.68410880  0.20752004  0.06565027    -0.25400
Co277      Co  0.62814322  0.21386641  0.12134646     0.74100
C278        C  0.73901123  0.23124741  0.23929823     0.43200
N279        N  0.67909786  0.05808215  0.20253928     0.01600
N280        N  0.68363661  0.21010200  0.18048146     0.01700
N281        N  0.53270078  0.19611548  0.99354605    -0.46300
H282        H  0.71220980  0.07315253  0.95049218     0.07500
N283        N  0.67867743  0.17364689  0.02881007     0.02000
N284        N  0.57108290  0.21225085  0.17487348     0.01700
C285        C  0.49998550  0.22733688  0.21225247     0.43300
N286        N  0.67610937  0.02410661  0.16563555    -0.24900
C287        C  0.52956534  0.05721090  0.99042172    -0.05800
N288        N  0.70807591  0.98788464  0.04437093    -0.46000
N289        N  0.53212931  0.24543435  0.17662700    -0.46200
C290        C  0.50995091  0.00723391  0.00573171     0.43100
N291        N  0.56713142  0.18375074  0.02895129     0.02000
N292        N  0.56435777  0.02360376  0.17320307    -0.24900
N293        N  0.67279570  0.06197007  0.02139262    -0.25400
N294        N  0.56524248  0.05801751  0.20986303     0.01600
H295        H  0.52272259  0.95228995  0.16336521     0.07500
H296        H  0.50905064  0.15572418  0.26431626     0.07600
N297        N  0.57123720  0.21948358  0.06414151    -0.25400
N298        N  0.68075460  0.17214920  0.21392016    -0.25000
N299        N  0.56192108  0.03097080  0.06156873     0.02000
C300        C  0.74853374  0.21137553  0.01092463     0.43400
C301        C  0.71828977  0.99449921  0.16482652    -0.06300
N302        N  0.56731146  0.17411521  0.20831135    -0.25000
H303        H  0.71959885  0.15655226  0.28434497     0.07500
N304        N  0.71582912  0.17537784  0.99476603    -0.46300
H305        H  0.72646171  0.96318288  0.13883303     0.07500
C306        C  0.50740713  0.00242040  0.23405182     0.43200
C307        C  0.70734567  0.05078458  0.98489770    -0.05800
Co308      Co  0.61869221  0.02487604  0.11431935     0.73800
N309        N  0.72269182  0.05309145  0.22804431    -0.46000
C310        C  0.51136936  0.24237818  0.00619982     0.43500
N311        N  0.53107857  0.99270782  0.04974077    -0.46000
Co312      Co  0.62297286  0.11537949  0.21038301     0.73900
C313        C  0.52314914  0.18054606  0.23417318    -0.06300
C314        C  0.72780480  0.23354288  0.05759641    -0.05900
N315        N  0.56235006  0.06847192  0.02730790    -0.25400
N316        N  0.71720553  0.24642016  0.19450213    -0.46200
H317        H  0.53213703  0.29296513  0.07522444     0.07500
C318        C  0.52915310  0.98725339  0.18483218    -0.06300
Cl319      Cl  0.62214278  0.11923175  0.11815531    -0.49300
C320        C  0.74914135  0.01418098  0.20533864     0.43300
H321        H  0.52605682  0.07760676  0.95464616     0.07500
N322        N  0.53239965  0.04647591  0.24723187    -0.46000
C323        C  0.61963691  0.61982672  0.11264496    -0.01800
C324        C  0.11670061  0.62008837  0.61085907    -0.01800
C325        C  0.25303666  0.48163333  0.48014928     0.43100
N326        N  0.30613134  0.46203890  0.41902132     0.02000
C327        C  0.30004344  0.23654898  0.27474401    -0.05900
H328        H  0.33419005  0.20846386  0.46738177     0.07500
C329        C  0.50630660  0.30042550  0.44602925    -0.06200
Co330      Co  0.27336721  0.36577893  0.36507007     0.74200
N331        N  0.31673701  0.27481865  0.42020000    -0.25400
Co332      Co  0.37144355  0.27366050  0.36370455     0.74100
C333        C  0.49193760  0.25100927  0.47006513     0.43200
N334        N  0.46061759  0.42732802  0.41402909     0.01600
N335        N  0.43279999  0.27482313  0.41615512     0.01700
N336        N  0.23716401  0.29809848  0.27684418    -0.46300
H337        H  0.20342105  0.40983441  0.46458470     0.07500
N338        N  0.27892273  0.30975977  0.42047628     0.02000
N339        N  0.42456716  0.27773595  0.30653188     0.01700
C340        C  0.46710416  0.26169095  0.23983591     0.43300
N341        N  0.42281018  0.46238724  0.41559197    -0.24900
C342        C  0.24338142  0.42501468  0.26802230    -0.05800
N343        N  0.29525830  0.49802888  0.45363173    -0.46000
N344        N  0.42915628  0.24380284  0.26975937    -0.46200
C345        C  0.26475607  0.46809760  0.23961378     0.43100
N346        N  0.27395839  0.30730133  0.31066796     0.02000
N347        N  0.42309373  0.46672517  0.30668432    -0.24900
N348        N  0.27211426  0.42413138  0.41964761    -0.25400
N349        N  0.46045130  0.43144923  0.30479356     0.01600
H350        H  0.41339924  0.54139190  0.27034850     0.07500
H351        H  0.51937490  0.33284296  0.25012395     0.07600
N352        N  0.31102361  0.27173180  0.31057067    -0.25400
N353        N  0.46771774  0.31186120  0.41343502    -0.25000
N354        N  0.30832028  0.45826015  0.30736248     0.02000
C355        C  0.26340077  0.26105455  0.48296628     0.43400
C356        C  0.43198209  0.49546577  0.45290514    -0.06300
N357        N  0.45850975  0.31564915  0.30345859    -0.25000
H358        H  0.54177768  0.32225169  0.44983824     0.07500
N359        N  0.24548853  0.30269063  0.45763141    -0.46300
H360        H  0.40893049  0.52940851  0.46221042     0.07500
C361        C  0.48503152  0.49066683  0.25175141     0.43200
C362        C  0.23729470  0.43304831  0.45673074    -0.05800
Co363      Co  0.36464551  0.46366679  0.36231032     0.73800
N364        N  0.49659265  0.43471221  0.44852985    -0.46000
C365        C  0.25152332  0.25477101  0.25167712     0.43500
N366        N  0.30413330  0.48773603  0.26660596    -0.46000
Co367      Co  0.46289218  0.37145122  0.35879632     0.73900
C368        C  0.48692788  0.30913348  0.26180354    -0.06300
C369        C  0.31028306  0.24209039  0.45882624    -0.05900
N370        N  0.27333114  0.42127723  0.30894322    -0.25400
N371        N  0.44600401  0.23756472  0.44892622    -0.46200
H372        H  0.32226518  0.20167938  0.26695715     0.07500
C373        C  0.43487554  0.50532985  0.27425100    -0.06300
Cl374      Cl  0.36818811  0.36873462  0.36276298    -0.49300
C375        C  0.48047981  0.47667982  0.47404058     0.43300
H376        H  0.21125854  0.40008901  0.25881893     0.07500
N377        N  0.49852584  0.44459787  0.27315194    -0.46000
C378        C  0.73411696  0.74353185  0.72412813     0.43100
N379        N  0.71189546  0.68605997  0.66943547     0.02000
C380        C  0.48476210  0.68240876  0.52724897    -0.05900
H381        H  0.46361529  0.65277621  0.72439416     0.10700
C382        C  0.56134710  0.48672146  0.71182003    -0.06200
Co383      Co  0.61414970  0.71496472  0.61516271     0.74200
N384        N  0.52634345  0.67123868  0.67360616    -0.25400
Co385      Co  0.52597765  0.61423914  0.61968574     0.74100
C386        C  0.51035776  0.49925198  0.73376596     0.43200
N387        N  0.68312991  0.53443440  0.67552325     0.01600
N388        N  0.53014471  0.55576179  0.67571511     0.01700
N389        N  0.54416096  0.74618905  0.52644419    -0.46300
H390        H  0.66098913  0.79289554  0.70661257     0.07500
N391        N  0.55935000  0.71000307  0.67137349     0.02000
N392        N  0.53132190  0.55689230  0.56658907     0.01700
C393        C  0.51100798  0.50305116  0.51058206     0.43300
N394        N  0.71721045  0.57216630  0.67340193    -0.24900
C395        C  0.67740922  0.74908054  0.52217548    -0.05800
N396        N  0.74900887  0.69869526  0.70173745    -0.46000
N397        N  0.49494803  0.54650249  0.53346678    -0.46200
C398        C  0.72556287  0.73135179  0.49945301     0.43100
N399        N  0.55523139  0.71044883  0.56128927     0.02000
N400        N  0.71939024  0.56655238  0.56340249    -0.24900
N401        N  0.67349256  0.72012949  0.66853162    -0.25400
N402        N  0.68713823  0.52715147  0.56465324     0.01600
H403        H  0.78776854  0.58388965  0.51914306     0.07500
H404        H  0.58345433  0.45207196  0.52474812     0.07600
N405        N  0.52102508  0.67266008  0.56300201    -0.25400
N406        N  0.56957267  0.52283509  0.67587725    -0.25000
N407        N  0.70834745  0.68097663  0.56012850     0.02000
C408        C  0.51360885  0.72514563  0.73637783     0.43400
C409        C  0.74825622  0.56887175  0.71361452    -0.06300
N410        N  0.56977311  0.52249401  0.56671468    -0.25000
H411        H  0.58693097  0.45419575  0.71952895     0.07500
N412        N  0.55218715  0.74408255  0.70771003    -0.46300
H413        H  0.78035537  0.59417629  0.72194976     0.07500
C414        C  0.74429061  0.50631996  0.50708954     0.43200
C415        C  0.68393896  0.75793691  0.70164996    -0.05800
Co416      Co  0.71519052  0.62635970  0.61640838     0.73800
N417        N  0.68862417  0.50504901  0.71607190    -0.46000
C418        C  0.50082859  0.73089110  0.50223852     0.43500
N419        N  0.74306079  0.68945125  0.52450491    -0.46000
Co420      Co  0.62777185  0.52554247  0.62045642     0.73900
C421        C  0.56033626  0.48652214  0.53188339    -0.06300
C422        C  0.49582053  0.67730139  0.71390805    -0.05900
N423        N  0.66999496  0.71529164  0.55980496    -0.25400
N424        N  0.49366792  0.54274055  0.70915026    -0.46200
H425        H  0.45032212  0.65970464  0.52088802     0.07500
C426        C  0.75556749  0.55761506  0.52785313    -0.06300
Cl427      Cl  0.62067909  0.62018422  0.61761480    -0.49300
C428        C  0.72819859  0.52522373  0.74223631     0.43300
H429        H  0.65367495  0.78287922  0.51387746     0.07500
N430        N  0.70089627  0.49008756  0.53209650    -0.46000
C431        C  0.61820351  0.11556778  0.61496909    -0.01800
C432        C  0.12140111  0.12389928  0.11437624    -0.01800
C433        C  0.21625854  0.22491813  0.21790766    -0.04700
C434        C  0.18121777  0.18940646  0.23869262    -0.01800
C435        C  0.14652138  0.16161796  0.20738447     0.03200
C436        C  0.15135504  0.16254228  0.15252002    -0.04700
C437        C  0.18400193  0.20367156  0.13301064    -0.01800
C438        C  0.21529978  0.23420215  0.16553860     0.03200
C439        C  0.17905061  0.18356259  0.29355709     0.37800
C440        C  0.18880307  0.21472831  0.07931034     0.37800
C441        C  0.24816333  0.27479154  0.14488558     0.36200
C442        C  0.10239996  0.14002790  0.23422466     0.36200
N443        N  0.27425864  0.30726708  0.12865136    -0.38600
N444        N  0.06741170  0.12532933  0.25779160    -0.38600
N445        N  0.19471874  0.22682070  0.03740346    -0.38000
N446        N  0.17726915  0.17922871  0.33719780    -0.38000
C447        C  0.58701578  0.15350713  0.57553254    -0.04700
C448        C  0.58806558  0.20988511  0.57536665    -0.01800
C449        C  0.55373519  0.24011779  0.54455996     0.03200
C450        C  0.52440481  0.21756280  0.50569245    -0.04700
C451        C  0.52806339  0.16334943  0.49982184    -0.01800
C452        C  0.55696069  0.13174692  0.53454451     0.03200
C453        C  0.62766717  0.24005420  0.60024429     0.37800
C454        C  0.50168993  0.13935730  0.45744753     0.37800
C455        C  0.55126665  0.07623691  0.52841049     0.36200
C456        C  0.54823629  0.29553798  0.55369087     0.36200
N457        N  0.54373482  0.03282103  0.52058066    -0.38600
N458        N  0.54367897  0.33954318  0.56127330    -0.38600
N459        N  0.48090041  0.12004667  0.42370962    -0.38000
N460        N  0.65886082  0.26684115  0.61737301    -0.38000
C461        C  0.21859867  0.51559383  0.51251748    -0.04700
C462        C  0.21496913  0.50809672  0.56516110    -0.01800
C463        C  0.18228452  0.54036769  0.59575832     0.03200
C464        C  0.15023443  0.58138150  0.57424413    -0.04700
C465        C  0.14927239  0.58175481  0.51900438    -0.01800
C466        C  0.18503830  0.55174636  0.48972397     0.03200
C467        C  0.24632365  0.46727211  0.58827906     0.37800
C468        C  0.10824087  0.60542994  0.48909448     0.37800
C469        C  0.18475734  0.55499036  0.43456892     0.36200
C470        C  0.18564491  0.53177456  0.64995697     0.36200
N471        N  0.18446039  0.55682019  0.39073957    -0.38600
N472        N  0.19108704  0.52208256  0.69248654    -0.38600
N473        N  0.07636735  0.62161048  0.46231190    -0.38000
N474        N  0.27114764  0.43466624  0.60673522    -0.38000
C475        C  0.51911366  0.52394633  0.21834179    -0.04700
C476        C  0.57265834  0.52987195  0.22763581    -0.01800
C477        C  0.60431965  0.56059284  0.19477330     0.03200
C478        C  0.58254187  0.58979798  0.15273419    -0.04700
C479        C  0.52634164  0.58933672  0.15060249    -0.01800
C480        C  0.49707133  0.55235532  0.17818968     0.03200
C481        C  0.59601763  0.50249677  0.27023906     0.37800
C482        C  0.49515134  0.63003381  0.12741703     0.37800
C483        C  0.44379131  0.54208545  0.16345188     0.36200
C484        C  0.65986323  0.55711010  0.20319760     0.36200
N485        N  0.40171773  0.53307037  0.15120772    -0.38600
N486        N  0.70346300  0.55158134  0.21252154    -0.38600
N487        N  0.46786174  0.66184322  0.11100225    -0.38000
N488        N  0.61476011  0.48054593  0.30402104    -0.38000
C489        C  0.77530808  0.26385101  0.27207548    -0.04700
C490        C  0.81126967  0.29826640  0.24985329    -0.01800
C491        C  0.84685135  0.32744727  0.27970048     0.03200
C492        C  0.84372439  0.32885572  0.33462973    -0.04700
C493        C  0.80977293  0.29004676  0.35604216    -0.01800
C494        C  0.77529981  0.26015741  0.32565270     0.03200
C495        C  0.81272374  0.30336599  0.19497422     0.37800
C496        C  0.80724630  0.28002102  0.41007355     0.37800
C497        C  0.73580879  0.22954854  0.35115320     0.36200
C498        C  0.89013770  0.34883559  0.25138553     0.36200
N499        N  0.70442567  0.20626586  0.37278457    -0.38600
N500        N  0.92439051  0.36359945  0.22683701    -0.38600
N501        N  0.80234896  0.26756264  0.45200343    -0.38000
N502        N  0.81386103  0.30821254  0.15136255    -0.38000
C503        C  0.91433078  0.40557810  0.33831981    -0.04700
C504        C  0.97076174  0.40487733  0.33985542    -0.01800
C505        C  0.00123870  0.43436223  0.30506393     0.03200
C506        C  0.97860430  0.47184038  0.27283651    -0.04700
C507        C  0.92409302  0.47768469  0.27423556    -0.01800
C508        C  0.89254728  0.44526015  0.30544304     0.03200
C509        C  0.00070158  0.38079267  0.38015348     0.37800
C510        C  0.89945892  0.51720955  0.24262852     0.37800
C511        C  0.83700786  0.45268509  0.29982933     0.36200
C512        C  0.05701624  0.42510700  0.30204935     0.36200
N513        N  0.79379739  0.46228312  0.29187853    -0.38600
N514        N  0.10132552  0.41743093  0.29967845    -0.38600
N515        N  0.87946575  0.54830485  0.21737062    -0.38000
N516        N  0.02738513  0.36445484  0.41179917    -0.38000
C517        C  0.90812465  0.33015287  0.40951512    -0.04700
C518        C  0.94130388  0.28894853  0.39055703    -0.01800
C519        C  0.97377297  0.25888814  0.42334433     0.03200
C520        C  0.97587857  0.26906414  0.47550548    -0.04700
C521        C  0.94113992  0.30557772  0.49583269    -0.01800
C522        C  0.90482036  0.33227083  0.46446507     0.03200
C523        C  0.94586312  0.27765759  0.33702971     0.37800
C524        C  0.93979482  0.31240618  0.55055059     0.37800
C525        C  0.85996532  0.35251176  0.49156579     0.36200
C526        C  0.00707261  0.21817044  0.40292446     0.36200
N527        N  0.82443026  0.36591524  0.51528293    -0.38600
N528        N  0.03359485  0.18578643  0.38664281    -0.38600
N529        N  0.93844552  0.31746250  0.59408144    -0.38000
N530        N  0.95232273  0.26538547  0.29536033    -0.38000
C531        C  0.83923188  0.40804531  0.40234552    -0.04700
C532        C  0.86202883  0.44680150  0.43469065    -0.01800
C533        C  0.83160480  0.47783640  0.46842682     0.03200
C534        C  0.77682958  0.47414553  0.47022647    -0.04700
C535        C  0.75309532  0.44059516  0.43539604    -0.01800
C536        C  0.78294859  0.40972886  0.40084463     0.03200
C537        C  0.91774768  0.45412008  0.43744624     0.37800
C538        C  0.69666376  0.44001358  0.43286446     0.37800
C539        C  0.75318495  0.38621682  0.36069461     0.36200
C540        C  0.85828915  0.51128729  0.50392123     0.36200
N541        N  0.72726389  0.37024347  0.32868180    -0.38600
N542        N  0.88069896  0.53754816  0.53162579    -0.38600
N543        N  0.65179157  0.43962114  0.43040634    -0.38000
N544        N  0.96124394  0.46364637  0.44262493    -0.38000
C545        C  0.26903661  0.77225112  0.26568216    -0.04700
C546        C  0.30476179  0.74829928  0.29861966    -0.01800
C547        C  0.33259161  0.77741330  0.33538199     0.03200
C548        C  0.33104650  0.83376941  0.33595045    -0.04700
C549        C  0.29036706  0.85632826  0.30473885    -0.01800
C550        C  0.25994344  0.82578214  0.27111825     0.03200
C551        C  0.31103807  0.69220332  0.29619702     0.37800
C552        C  0.27893426  0.91146147  0.30478957     0.37800
C553        C  0.21882709  0.84984328  0.24134723     0.36200
C554        C  0.35558573  0.74633746  0.37548312     0.36200
N555        N  0.18585313  0.86909228  0.21798670    -0.38600
N556        N  0.37164114  0.71898004  0.40678853    -0.38600
N557        N  0.26651225  0.95469967  0.30301655    -0.38000
N558        N  0.31584319  0.64755541  0.29439136    -0.38000
C559        C  0.40851207  0.90269365  0.33173420    -0.04700
C560        C  0.45025879  0.93345456  0.35213384    -0.01800
C561        C  0.48246607  0.96492787  0.32054431     0.03200
C562        C  0.47295705  0.96996357  0.26812230    -0.04700
C563        C  0.43302540  0.93996079  0.24729597    -0.01800
C564        C  0.40615184  0.90266722  0.27694634     0.03200
C565        C  0.46149492  0.93467396  0.40587750     0.37800
C566        C  0.41911426  0.94701344  0.19431225     0.37800
C567        C  0.38587615  0.85984586  0.24790933     0.36200
C568        C  0.52631815  0.99181465  0.34247788     0.36200
N569        N  0.37247981  0.82602134  0.22254074    -0.38600
N570        N  0.56137097  0.01292041  0.36005732    -0.38600
N571        N  0.40763235  0.95265027  0.15225593    -0.38000
N572        N  0.47397223  0.93758815  0.44784271    -0.38000
C573        C  0.33202548  0.90884932  0.40097480    -0.04700
C574        C  0.33457683  0.96501499  0.40088335    -0.01800
C575        C  0.30834828  0.99554666  0.43820692     0.03200
C576        C  0.27196355  0.97343597  0.47191512    -0.04700
C577        C  0.26125325  0.91988848  0.46594071    -0.01800
C578        C  0.29114386  0.88805148  0.43242590     0.03200
C579        C  0.35649896  0.99454544  0.35918740     0.37800
C580        C  0.22015860  0.89596023  0.49563995     0.37800
C581        C  0.28004628  0.83295689  0.43361468     0.36200
C582        C  0.31654290  0.05128418  0.43903478     0.36200
N583        N  0.26842163  0.78977443  0.43667653    -0.38600
N584        N  0.32352257  0.09559722  0.43914309    -0.38600
N585        N  0.18725410  0.87639553  0.51861847    -0.38000
N586        N  0.37165309  0.02050642  0.32647781    -0.38000
C587        C  0.40744744  0.83676200  0.40571056    -0.04700
C588        C  0.40473109  0.83696955  0.46065734    -0.01800
C589        C  0.43069700  0.79860420  0.49035911     0.03200
C590        C  0.46897039  0.76639930  0.46902802    -0.04700
C591        C  0.48055063  0.77251799  0.41729417    -0.01800
C592        C  0.44930116  0.80502795  0.38551592     0.03200
C593        C  0.38530947  0.88067164  0.48961841     0.37800
C594        C  0.52475158  0.74437053  0.39641697     0.37800
C595        C  0.46076839  0.80288128  0.33179240     0.36200
C596        C  0.42080916  0.79487825  0.54457059     0.36200
N597        N  0.47294058  0.79892492  0.28973538    -0.38600
N598        N  0.41308166  0.79178653  0.58770474    -0.38600
N599        N  0.56029127  0.72241959  0.37985599    -0.38000
N600        N  0.37255731  0.91507829  0.51493401    -0.38000
C601        C  0.26582075  0.26861492  0.77501535    -0.04700
C602        C  0.30389400  0.29907796  0.75150313    -0.01800
C603        C  0.33297420  0.33591250  0.77947619     0.03200
C604        C  0.33169795  0.33712171  0.83454503    -0.04700
C605        C  0.28965758  0.30734764  0.85677031    -0.01800
C606        C  0.25698248  0.27516263  0.82703597     0.03200
C607        C  0.31053304  0.29507452  0.69687366     0.37800
C608        C  0.27942917  0.30631942  0.91077317     0.37800
C609        C  0.21433222  0.24711350  0.85046655     0.36200
C610        C  0.35614453  0.37619640  0.74846873     0.36200
N611        N  0.18018094  0.22494941  0.86892327    -0.38600
N612        N  0.37213244  0.40792424  0.72150855    -0.38600
N613        N  0.26763873  0.30295595  0.95301139    -0.38000
N614        N  0.31569646  0.29205301  0.65340713    -0.38000
C615        C  0.33187712  0.40486278  0.90530638    -0.04700
C616        C  0.33018567  0.40348989  0.96033502    -0.01800
C617        C  0.29827682  0.43851282  0.98854674     0.03200
C618        C  0.26559911  0.47489083  0.96437893    -0.04700
C619        C  0.26233677  0.47344584  0.91103759    -0.01800
C620        C  0.29305689  0.43809657  0.88215554     0.03200
C621        C  0.35486556  0.36311326  0.99058452     0.37800
C622        C  0.23082084  0.51197711  0.88451887     0.37800
C623        C  0.28653621  0.44122860  0.82764478     0.36200
C624        C  0.29647825  0.43466020  0.04356824     0.36200
N625        N  0.27800307  0.44717642  0.78497671    -0.38600
N626        N  0.29485240  0.43082061  0.08724998    -0.38600
N627        N  0.20637562  0.54263705  0.86270239    -0.38000
N628        N  0.37215717  0.33144238  0.01705318    -0.38000
C629        C  0.40930895  0.33440208  0.90362674    -0.04700
C630        C  0.40832073  0.27815602  0.90602503    -0.01800
C631        C  0.43850911  0.24970175  0.94204394     0.03200
C632        C  0.47681865  0.27393544  0.97135620    -0.04700
C633        C  0.48429508  0.32747842  0.96434830    -0.01800
C634        C  0.45031264  0.35756577  0.93324900     0.03200
C635        C  0.38211219  0.24615239  0.86930414     0.37800
C636        C  0.52841138  0.35227894  0.98823262     0.37800
C637        C  0.45801839  0.41310314  0.93569403     0.36200
C638        C  0.43020415  0.19421454  0.94846426     0.36200
N639        N  0.46839219  0.45632910  0.94099292    -0.38600
N640        N  0.42342386  0.15011522  0.95330427    -0.38600
N641        N  0.56351738  0.37249818  0.00670274    -0.38000
N642        N  0.36357396  0.21775992  0.84087078    -0.38000
C643        C  0.40964074  0.40676569  0.83690135    -0.04700
C644        C  0.41172804  0.46312171  0.83834798    -0.01800
C645        C  0.44444322  0.49202213  0.80506677     0.03200
C646        C  0.47793129  0.46735669  0.77037268    -0.04700
C647        C  0.48027429  0.41255635  0.77119166    -0.01800
C648        C  0.44883184  0.38293616  0.80507107     0.03200
C649        C  0.38682114  0.49419707  0.87727787     0.37800
C650        C  0.51153425  0.38548781  0.73356363     0.37800
C651        C  0.45496695  0.32695853  0.80238159     0.36200
C652        C  0.44571082  0.54838661  0.80883710     0.36200
N653        N  0.46220541  0.28287307  0.79760192    -0.38600
N654        N  0.44645689  0.59307982  0.81276481    -0.38600
N655        N  0.53575131  0.36349374  0.70337439    -0.38000
N656        N  0.36962852  0.52153347  0.90783094    -0.38000
C657        C  0.15311422  0.65863531  0.64359275    -0.04700
C658        C  0.20954904  0.65759658  0.64439099    -0.01800
C659        C  0.23822287  0.68733353  0.67996009     0.03200
C660        C  0.21374710  0.72497771  0.71022352    -0.04700
C661        C  0.16029511  0.73339382  0.70408433    -0.01800
C662        C  0.12996269  0.69999720  0.67341893     0.03200
C663        C  0.24105111  0.63321796  0.60547471     0.37800
C664        C  0.13605578  0.77690248  0.73020093     0.37800
C665        C  0.07436811  0.70867263  0.67614959     0.36200
C666        C  0.29436722  0.68141162  0.68336045     0.36200
N667        N  0.03089521  0.71928969  0.68117980    -0.38600
N668        N  0.33904092  0.67674836  0.68593829    -0.38600
N669        N  0.11671597  0.81185817  0.75039959    -0.38000
N670        N  0.26847350  0.61630913  0.57473113    -0.38000
C671        C  0.16050463  0.08595573  0.08366229    -0.04700
C672        C  0.14015703  0.04540705  0.05158441    -0.01800
C673        C  0.17322538  0.01319790  0.02185578     0.03200
C674        C  0.22680685  0.02169166  0.01988434    -0.04700
C675        C  0.24827214  0.05944372  0.05130323    -0.01800
C676        C  0.21674208  0.08774964  0.08594120     0.03200
C677        C  0.08501381  0.03758679  0.04437002     0.37800
C678        C  0.30407775  0.06771221  0.04934651     0.37800
C679        C  0.24513487  0.11104930  0.12714782     0.36200
C680        C  0.15170748  0.97221963  0.99078580     0.36200
N681        N  0.27013535  0.12686419  0.15992645    -0.38600
N682        N  0.13483111  0.93956999  0.96599474    -0.38600
N683        N  0.34842691  0.07449583  0.04756581    -0.38000
N684        N  0.04219822  0.02814377  0.03525133    -0.38000
C685        C  0.51479275  0.71042933  0.00426407    -0.04700
C686        C  0.51793598  0.65575856  0.00361472    -0.01800
C687        C  0.55320941  0.62800126  0.03559077     0.03200
C688        C  0.58573479  0.65375350  0.07225420    -0.04700
C689        C  0.58613317  0.70980261  0.06733674    -0.01800
C690        C  0.55047428  0.73688459  0.03510713     0.03200
C691        C  0.48210133  0.62654247  0.97260916     0.37800
C692        C  0.62546894  0.74216755  0.08996945     0.37800
C693        C  0.55261718  0.79324109  0.03180818     0.36200
C694        C  0.55146535  0.57191716  0.03158533     0.36200
N695        N  0.55477635  0.83801089  0.02917022    -0.38600
N696        N  0.54708818  0.52784582  0.02482208    -0.38600
N697        N  0.65607318  0.77049588  0.10567853    -0.38000
N698        N  0.45410400  0.60189530  0.94861527    -0.38000
C699        C  0.51332992  0.01762746  0.71666345    -0.04700
C700        C  0.56723408  0.01913259  0.72394624    -0.01800
C701        C  0.59984601  0.05020556  0.69232038     0.03200
C702        C  0.57927097  0.08273416  0.65182107    -0.04700
C703        C  0.52280841  0.08494113  0.65025865    -0.01800
C704        C  0.49143634  0.05101003  0.68022802     0.03200
C705        C  0.58965184  0.98635070  0.76340409     0.37800
C706        C  0.49386526  0.12531806  0.62400770     0.37800
C707        C  0.43512815  0.05246396  0.67573384     0.36200
C708        C  0.65507884  0.04372888  0.70084049     0.36200
N709        N  0.39031000  0.05365099  0.67252079    -0.38600
N710        N  0.69793530  0.03487048  0.71107788    -0.38600
N711        N  0.46835954  0.15728588  0.60530693    -0.38000
N712        N  0.60742644  0.96012520  0.79471887    -0.38000
C713        C  0.71480762  0.21485888  0.72111645    -0.04700
C714        C  0.65993695  0.21505134  0.72275091    -0.01800
C715        C  0.63022114  0.18139491  0.69157562     0.03200
C716        C  0.65404243  0.14789908  0.65420195    -0.04700
C717        C  0.71025872  0.14463053  0.65753624    -0.01800
C718        C  0.73936005  0.17902586  0.68856372     0.03200
C719        C  0.63280648  0.25336321  0.75349678     0.37800
C720        C  0.74050397  0.10275263  0.63526161     0.37800
C721        C  0.79578250  0.17540241  0.68869361     0.36200
C722        C  0.57427879  0.18540239  0.69728329     0.36200
N723        N  0.84061656  0.17179361  0.68837809    -0.38600
N724        N  0.53039272  0.19132273  0.70519151    -0.38600
N725        N  0.76647777  0.06951676  0.61969291    -0.38000
N726        N  0.61039782  0.28377263  0.77740131    -0.38000
C727        C  0.09007681  0.16212325  0.07649306    -0.04700
C728        C  0.05715315  0.20298910  0.09638709    -0.01800
C729        C  0.02959150  0.23773410  0.06409644     0.03200
C730        C  0.02763040  0.22941436  0.01150163    -0.04700
C731        C  0.05854199  0.18964210  0.99094162    -0.01800
C732        C  0.09394237  0.16132175  0.02164291     0.03200
C733        C  0.04721524  0.20925220  0.15007591     0.37800
C734        C  0.05383028  0.17713354  0.93748722     0.37800
C735        C  0.13766229  0.13963080  0.99391913     0.36200
C736        C  0.00325618  0.28271231  0.08562583     0.36200
N737        N  0.17213306  0.12474917  0.96955966    -0.38600
N738        N  0.98277360  0.31860760  0.10304501    -0.38600
N739        N  0.04961467  0.16680858  0.89508178    -0.38000
N740        N  0.03549637  0.21785817  0.19156662    -0.38000
C741        C  0.71499376  0.51237259  0.01313689    -0.04700
C742        C  0.68392160  0.49138448  0.05154235    -0.01800
C743        C  0.65075846  0.52349675  0.08128267     0.03200
C744        C  0.65222476  0.57983583  0.07738229    -0.04700
C745        C  0.68331724  0.59941197  0.03564800    -0.01800
C746        C  0.71314245  0.56590181  0.00406830     0.03200
C747        C  0.68403644  0.43524869  0.05858768     0.37800
C748        C  0.68862673  0.65443696  0.02536832     0.37800
C749        C  0.74327213  0.58668883  0.96202778     0.36200
C750        C  0.61142000  0.49495150  0.10889107     0.36200
N751        N  0.76715354  0.60285743  0.92832732    -0.38600
N752        N  0.58053137  0.46895023  0.12808323    -0.38600
N753        N  0.69562577  0.69733768  0.01433010    -0.38000
N754        N  0.68363640  0.39067100  0.06415109    -0.38000
C755        C  0.01463497  0.51560464  0.70888317    -0.04700
C756        C  0.01898732  0.50896392  0.65600512    -0.01800
C757        C  0.05120138  0.54169004  0.62568032     0.03200
C758        C  0.08315651  0.58169767  0.64731292    -0.04700
C759        C  0.08351810  0.58188342  0.70234746    -0.01800
C760        C  0.04714558  0.55257059  0.73147937     0.03200
C761        C  0.99070306  0.46738334  0.63191082     0.37800
C762        C  0.12440103  0.60527114  0.73194217     0.37800
C763        C  0.04357579  0.56047357  0.78595027     0.36200
C764        C  0.04749865  0.53447449  0.57141047     0.36200
N765        N  0.04067793  0.56679393  0.82926139    -0.38600
N766        N  0.04150616  0.52559796  0.52892024    -0.38600
N767        N  0.15667765  0.62147472  0.75773776    -0.38000
N768        N  0.96854503  0.43439833  0.61203876    -0.38000
C769        C  0.72263746  0.72330093  0.20882448    -0.04700
C770        C  0.66825063  0.72179096  0.21582995    -0.01800
C771        C  0.63622319  0.68944053  0.18540972     0.03200
C772        C  0.65757183  0.65502600  0.14737997    -0.04700
C773        C  0.71392011  0.65345849  0.14590569    -0.01800
C774        C  0.74445493  0.69057348  0.17181063     0.03200
C775        C  0.64437394  0.75416010  0.25451802     0.37800
C776        C  0.74368845  0.61016079  0.12586441     0.37800
C777        C  0.79943408  0.69501874  0.15970304     0.36200
C778        C  0.58067616  0.69461525  0.19333933     0.36200
N779        N  0.84307707  0.69869178  0.14974179    -0.38600
N780        N  0.53712091  0.70133579  0.20231092    -0.38600
N781        N  0.76956769  0.57596799  0.11225017    -0.38000
N782        N  0.62505875  0.77999055  0.28510959    -0.38000
C783        C  0.02020867  0.01960130  0.21067190    -0.04700
C784        C  0.99720190  0.05042229  0.17256433    -0.01800
C785        C  0.02771406  0.08241681  0.14006753     0.03200
C786        C  0.08380949  0.08458161  0.14482799    -0.04700
C787        C  0.10605834  0.04603189  0.17857224    -0.01800
C788        C  0.07481315  0.01584902  0.21180885     0.03200
C789        C  0.94145897  0.04652880  0.16442279     0.37800
C790        C  0.16169353  0.03892272  0.18405968     0.37800
C791        C  0.09983453  0.98355943  0.25018392     0.36200
C792        C  0.99896404  0.10785805  0.09962247     0.36200
N793        N  0.11991224  0.95827529  0.28090764    -0.38600
N794        N  0.97374497  0.12592490  0.06770245    -0.38600
N795        N  0.20507677  0.02974736  0.19156526    -0.38000
N796        N  0.89724131  0.04302805  0.15755252    -0.38000
C797        C  0.01898861  0.72424375  0.50853084    -0.04700
C798        C  0.07369879  0.72711059  0.50979493    -0.01800
C799        C  0.10339756  0.69794226  0.54554780     0.03200
C800        C  0.08008687  0.65910290  0.57793153    -0.04700
C801        C  0.02365937  0.66023106  0.57859184    -0.01800
C802        C  0.99446928  0.69090454  0.54338666     0.03200
C803        C  0.10085375  0.75445926  0.46940491     0.37800
C804        C  0.99281543  0.63647210  0.61837010     0.37800
C805        C  0.93797996  0.68907927  0.54410496     0.36200
C806        C  0.15901857  0.70647067  0.54426264     0.36200
N807        N  0.89307330  0.68732414  0.54481848    -0.38600
N808        N  0.20255495  0.71666151  0.54050494    -0.38600
N809        N  0.96586469  0.61995966  0.64964885    -0.38000
N810        N  0.12290296  0.77500119  0.43679038    -0.38000
C811        C  0.71614957  0.01628403  0.50756553    -0.04700
C812        C  0.68328784  0.99253489  0.54347365    -0.01800
C813        C  0.64996927  0.02231562  0.57568251     0.03200
C814        C  0.65252634  0.07854888  0.57773012    -0.04700
C815        C  0.68661307  0.10145672  0.54015150    -0.01800
C816        C  0.71681170  0.07095706  0.50585620     0.03200
C817        C  0.68340292  0.93619305  0.54778765     0.37800
C818        C  0.69498300  0.15695763  0.53725057     0.37800
C819        C  0.74886796  0.09676264  0.46800267     0.36200
C820        C  0.61011473  0.99218764  0.60086030     0.36200
N821        N  0.77447688  0.11733679  0.43801470    -0.38600
N822        N  0.57880356  0.96549910  0.61842093    -0.38600
N823        N  0.70553582  0.20019727  0.53191623    -0.38000
N824        N  0.68272237  0.89144749  0.55178141    -0.38000
C825        C  0.83538590  0.90515990  0.90463571    -0.04700
C826        C  0.83917365  0.96133241  0.90580155    -0.01800
C827        C  0.80562668  0.99202401  0.93667254     0.03200
C828        C  0.77071625  0.96903373  0.97123887    -0.04700
C829        C  0.77312099  0.91468032  0.97746579    -0.01800
C830        C  0.80332917  0.88320986  0.94430897     0.03200
C831        C  0.88037137  0.99032259  0.88112464     0.37800
C832        C  0.74285683  0.88990028  0.01728721     0.37800
C833        C  0.79612740  0.82763833  0.94975957     0.36200
C834        C  0.81051319  0.04830133  0.93535638     0.36200
N835        N  0.78733972  0.78421434  0.95673546    -0.38600
N836        N  0.81521069  0.09292231  0.93371005    -0.38600
N837        N  0.71927545  0.86980063  0.04911630    -0.38000
N838        N  0.91265500  0.01592622  0.86367233    -0.38000
C839        C  0.90519913  0.89928301  0.82916264    -0.04700
C840        C  0.96144921  0.89624762  0.82890766    -0.01800
C841        C  0.99182312  0.92994270  0.79818432     0.03200
C842        C  0.96885248  0.96193910  0.76089513    -0.04700
C843        C  0.91438657  0.96184171  0.75642040    -0.01800
C844        C  0.88301972  0.93221797  0.79005813     0.03200
C845        C  0.99091380  0.85555086  0.85425495     0.37800
C846        C  0.88978336  0.99342913  0.71727936     0.37800
C847        C  0.82741525  0.94086506  0.78588804     0.36200
C848        C  0.04772187  0.93210083  0.80590933     0.36200
N849        N  0.78395833  0.95109695  0.78023576    -0.38600
N850        N  0.09215717  0.93388661  0.81216582    -0.38600
N851        N  0.87014833  0.01880883  0.68636090    -0.38000
N852        N  0.01658701  0.82326234  0.87221894    -0.38000
C853        C  0.83004607  0.83619467  0.82839248    -0.04700
C854        C  0.85249082  0.80557585  0.78780886    -0.01800
C855        C  0.82129060  0.77761485  0.75315109     0.03200
C856        C  0.76702679  0.77508384  0.75933350    -0.04700
C857        C  0.74393824  0.80420478  0.79834793    -0.01800
C858        C  0.77372355  0.83804321  0.82876081     0.03200
C859        C  0.90813820  0.79803452  0.78228424     0.37800
C860        C  0.68851131  0.79907094  0.80798003     0.37800
C861        C  0.74321427  0.87757783  0.85430123     0.36200
C862        C  0.84584386  0.75079558  0.71087598     0.36200
N863        N  0.71629336  0.90861110  0.87242692    -0.38600
N864        N  0.86569335  0.72960249  0.67734460    -0.38600
N865        N  0.64447471  0.79483868  0.81577833    -0.38000
N866        N  0.95161054  0.78900736  0.77488109    -0.38000
C867        C  0.89858595  0.82875791  0.90497526    -0.04700
C868        C  0.89442702  0.77241380  0.90620060    -0.01800
C869        C  0.92428936  0.74155387  0.94043120     0.03200
C870        C  0.95728351  0.76431142  0.97576555    -0.04700
C871        C  0.95905982  0.81834096  0.97896859    -0.01800
C872        C  0.93017072  0.85027923  0.94505005     0.03200
C873        C  0.85682152  0.74317616  0.87752302     0.37800
C874        C  0.99260287  0.84133467  0.01684446     0.37800
C875        C  0.93724613  0.90559838  0.95134452     0.36200
C876        C  0.91983391  0.68520475  0.94080537     0.36200
N877        N  0.94577146  0.94864307  0.96004239    -0.38600
N878        N  0.91608236  0.64048139  0.94150477    -0.38600
N879        N  0.01941346  0.85966323  0.04682733    -0.38000
N880        N  0.82750417  0.71684846  0.85692236    -0.38000
loop_ 
_geom_bond_atom_site_label_1 
_geom_bond_atom_site_label_2 
_geom_bond_distance 
_geom_bond_site_symmetry_2 
_ccdc_geom_bond_type 
C1          C825   1.619       .  S
C1          C839   1.617       .  S
C1          C853   1.619       .  S
C1          C867   1.621       .  S
C2           N20   1.334       .  A
C2           C39   1.442   1_565  S
C2          C184   1.408   1_665  S
N3           N20   1.311       .  A
N3           N25   1.318       .  A
N3          Co40   2.027       .  S
C4           N29   1.326       .  A
C4           C42   1.453       .  S
C4           H49   1.082       .  S
H5           C46   1.082       .  S
C6           N30   1.329       .  A
C6           C10   1.446       .  S
C6           H35   1.082       .  S
Co7          N25   2.027       .  S
Co7          N15   2.096       .  S
Co7          N47   2.093       .  S
Co7          N23   2.015       .  S
Co7         Cl51   2.448       .  S
N8           C46   1.346       .  A
N8           N15   1.318       .  A
N8           Co9   2.106       .  S
Co9          N12   2.050       .  S
Co9          N29   2.047       .  S
Co9          N16   2.099       .  S
Co9         Cl51   2.434       .  S
C10          N48   1.339       .  A
C10         C398   1.423       .  S
N11          N18   1.318       .  A
N11          N41   1.332       .  A
N11         Co44   2.119       .  S
N12          N30   1.323       .  A
N12          N48   1.316       .  A
N13          C42   1.333       .  A
N13          N23   1.312       .  A
H14          C39   1.082       .  S
N15          N36   1.329       .  A
N16          N34   1.318       .  A
N16          N21   1.330       .  A
C17          N21   1.356       .  A
C17          C45   1.472       .  S
C17         C769   1.520       .  S
N18          C33   1.339   1_655  A
N18         Co40   2.079       .  S
C19          N47   1.345   1_545  A
C19          C22   1.469   1_545  S
C19          H53   1.081       .  S
C22          N43   1.353   1_655  A
C22         C783   1.510   1_665  S
N23          N29   1.316       .  A
N24          C50   1.326   1_655  A
N24          N26   1.316       .  A
N24         Co40   2.017       .  S
N25          C39   1.326   1_565  A
N26          N54   1.314       .  A
N26         Co44   2.057       .  S
H27          C50   1.081       .  S
H28          C45   1.081       .  S
N30         Co44   2.058       .  S
N31          N43   1.326   1_655  A
N31          N47   1.315       .  A
N31         Co40   2.085       .  S
C32          N36   1.357       .  A
C32          C46   1.471       .  S
C32         C811   1.520   1_565  S
C33          C52   1.464   1_455  S
C33          H37   1.081       .  S
N34          C45   1.346       .  A
N34         Co44   2.103       .  S
C38          N54   1.346       .  A
C38          C50   1.436   1_655  S
C38         C225   1.411   1_655  S
Co40        Cl51   2.428       .  S
N41          C52   1.361       .  A
C42         C320   1.408   1_565  S
Co44        Cl51   2.445       .  S
C52         C797   1.516   1_655  S
C55          N73   1.353       .  A
C55          C92   1.458       .  S
C55         C741   1.493   1_556  S
N56          N73   1.329       .  A
N56          N78   1.315       .  A
N56         Co93   2.097       .  S
C57          N82   1.344   1_455  A
C57          C95   1.466   1_455  S
C57         H102   1.082       .  S
H58          C99   1.082   1_455  S
C59          N83   1.350       .  A
C59          C63   1.476       .  S
C59          H88   1.081       .  S
Co60         N78   2.076       .  S
Co60         N68   2.016       .  S
Co60        N100   2.013       .  S
Co60         N76   2.076       .  S
Co60       Cl104   2.430       .  S
N61          C99   1.325       .  A
N61          N68   1.319       .  A
N61         Co62   2.038       .  S
Co62         N65   2.090       .  S
Co62         N82   2.085       .  S
Co62         N69   2.027       .  S
Co62       Cl104   2.444       .  S
C63         N101   1.356       .  A
C63         C755   1.524   1_655  S
N64          N71   1.321       .  A
N64          N94   1.316       .  A
N64         Co97   2.062       .  S
N65          N83   1.316       .  A
N65         N101   1.329       .  A
N66          C95   1.351       .  A
N66          N76   1.325       .  A
H67          C92   1.082   1_554  S
N68          N89   1.308       .  A
N69          N87   1.320       .  A
N69          N74   1.312       .  A
C70          N74   1.334       .  A
C70          C98   1.457       .  S
C70         C214   1.415   1_655  S
N71          C86   1.332       .  A
N71         Co93   2.062       .  S
C72         N100   1.323       .  A
C72          C75   1.433       .  S
C72         H106   1.082   1_556  S
C75          N96   1.351       .  A
C75         C300   1.415   1_556  S
N76          N82   1.314       .  A
N77         C103   1.344       .  A
N77          N79   1.317       .  A
N77         Co93   2.089       .  S
N78          C92   1.343       .  A
N79         N107   1.332       .  A
N79         Co97   2.114       .  S
H80         C103   1.081       .  S
H81          C98   1.080       .  S
N83         Co97   2.114       .  S
N84          N96   1.317       .  A
N84         N100   1.317       .  A
N84         Co93   2.074       .  S
C85          N89   1.331       .  A
C85          C99   1.447       .  S
C85         C257   1.405   1_656  S
C86         C105   1.449       .  S
C86          H90   1.081       .  S
N87          C98   1.331       .  A
N87         Co97   2.068       .  S
C91         N107   1.360       .  A
C91         C103   1.470       .  S
C91         C713   1.523       .  S
Co93       Cl104   2.444       .  S
N94         C105   1.344       .  A
C95         C730   1.500   1_656  S
Co97       Cl104   2.440       .  S
C105        C428   1.423       .  S
C108        N126   1.335       .  A
C108        C145   1.445       .  S
C108        C290   1.410   1_566  S
N109        N126   1.310       .  A
N109        N131   1.320       .  A
N109       Co146   2.030       .  S
C110        N135   1.332       .  A
C110        C148   1.462       .  S
C110        H155   1.082       .  S
H111        C152   1.080       .  S
C112        N136   1.331       .  A
C112        C116   1.453       .  S
C112        H141   1.082       .  S
Co113       N131   2.036       .  S
Co113       N121   2.083       .  S
Co113       N153   2.078       .  S
Co113       N129   2.013       .  S
Co113      Cl157   2.441       .  S
N114        C152   1.347       .  A
N114        N121   1.315       .  A
N114       Co115   2.108       .  S
Co115       N118   2.050       .  S
Co115       N135   2.072       .  S
Co115       N122   2.106       .  S
Co115      Cl157   2.444       .  S
C116        N154   1.338       .  A
C116        C408   1.422       .  S
N117        N124   1.317       .  A
N117        N147   1.334       .  A
N117       Co150   2.115       .  S
N118        N136   1.323       .  A
N118        N154   1.315       .  A
N119        C148   1.330       .  A
N119        N129   1.310       .  A
H120        C145   1.081   1_554  S
N121        N142   1.327       .  A
N122        N140   1.318       .  A
N122        N127   1.332       .  A
C123        N127   1.357       .  A
C123        C151   1.460       .  S
C123        C660   1.505       .  S
N124        C139   1.346       .  A
N124       Co146   2.089       .  S
C125        N153   1.343   1_554  A
C125        C128   1.456   1_554  S
C125        H159   1.082       .  S
C128        N149   1.353   1_565  A
C128        C674   1.493   1_566  S
N129        N135   1.319       .  A
N130        C156   1.326       .  A
N130        N132   1.317       .  A
N130       Co146   2.031       .  S
N131        C145   1.326       .  A
N132        N160   1.315       .  A
N132       Co150   2.060       .  S
H133        C156   1.081   1_545  S
H134        C151   1.082       .  S
N136       Co150   2.068       .  S
N137        N149   1.330   1_565  A
N137        N153   1.315       .  A
N137       Co146   2.096       .  S
C138        N142   1.356       .  A
C138        C152   1.476       .  S
C138        C685   1.522   1_556  S
C139        C158   1.461       .  S
C139        H143   1.081   1_565  S
N140        C151   1.346       .  A
N140       Co150   2.095       .  S
C144        N160   1.347       .  A
C144        C156   1.441       .  S
C144        C194   1.414   1_565  S
Co146      Cl157   2.437       .  S
N147        C158   1.359       .  A
C148        C217   1.413   1_556  S
Co150      Cl157   2.442       .  S
C158        C699   1.511   1_565  S
C161        C604   1.630       .  S
C161        C615   1.619       .  S
C161        C629   1.623       .  S
C161        C643   1.626       .  S
C162        C548   1.631       .  S
C162        C559   1.622       .  S
C162        C573   1.625       .  S
C162        C587   1.625       .  S
C163        C492   1.634       .  S
C163        C503   1.627       .  S
C163        C517   1.623       .  S
C163        C531   1.628       .  S
C164        N182   1.356   1_465  A
C164        C201   1.465       .  S
C164        C842   1.509   1_455  S
N165        N182   1.328   1_455  A
N165        N187   1.314       .  A
N165       Co202   2.091       .  S
C166        N191   1.352       .  A
C166        C204   1.484       .  S
C166        H211   1.081       .  S
H167        C208   1.082       .  S
C168        N192   1.345       .  A
C168        C172   1.462       .  S
C168        H197   1.081       .  S
Co169       N187   2.082       .  S
Co169       N177   2.026       .  S
Co169       N209   2.032       .  S
Co169       N185   2.079       .  S
Co169      Cl213   2.441       .  S
N170        C208   1.328       .  A
N170        N177   1.318       .  A
N170       Co171   2.058       .  S
Co171       N174   2.112       .  S
Co171       N191   2.126       .  S
Co171       N178   2.057       .  S
Co171      Cl213   2.446       .  S
C172        N210   1.357       .  A
C172        C601   1.505       .  S
N173        N180   1.316       .  A
N173        N203   1.314       .  A
N173       Co206   2.064       .  S
N174        N192   1.320       .  A
N174        N210   1.332       .  A
N175        C204   1.352   1_565  A
N175        N185   1.326   1_565  A
H176        C201   1.081       .  S
N177        N198   1.313   1_545  A
N178        N196   1.324       .  A
N178        N183   1.316       .  A
C179        N183   1.341       .  A
C179        C207   1.446       .  S
C179        C355   1.425       .  S
N180        C195   1.326   1_455  A
N180       Co202   2.018       .  S
C181        N209   1.326   1_565  A
C181        C184   1.445   1_565  S
C181        H215   1.082       .  S
C184        N205   1.334   1_455  A
N185        N191   1.317       .  A
N186        C212   1.341   1_455  A
N186        N188   1.318       .  A
N186       Co202   2.078       .  S
N187        C201   1.341   1_545  A
N188        N216   1.332       .  A
N188       Co206   2.115       .  S
H189        C212   1.081       .  S
H190        C207   1.082       .  S
N192       Co206   2.095       .  S
N193        N205   1.310   1_455  A
N193        N209   1.317       .  A
N193       Co202   2.024       .  S
C194        N198   1.336   1_545  A
C194        C208   1.455       .  S
C195        C214   1.438   1_655  S
C195        H199   1.081       .  S
N196        C207   1.330       .  A
N196       Co206   2.061       .  S
C200        N216   1.359       .  A
C200        C212   1.455   1_455  S
C200        C520   1.499   1_455  S
Co202      Cl213   2.438       .  S
N203        C214   1.347       .  A
C204        C576   1.528   1_545  S
Co206      Cl213   2.439       .  S
C217        N235   1.351       .  A
C217        C254   1.432   1_554  S
N218        N235   1.315       .  A
N218        N240   1.317       .  A
N218       Co255   2.072       .  S
C219        N244   1.326   1_655  A
C219        C257   1.446   1_655  S
C219        H264   1.082       .  S
H220        C261   1.081       .  S
C221        N245   1.331       .  A
C221        C225   1.455       .  S
C221        H250   1.081       .  S
Co222       N240   2.011       .  S
Co222       N230   2.082       .  S
Co222       N262   2.074       .  S
Co222       N238   2.015       .  S
Co222      Cl266   2.423       .  S
N223        C261   1.346   1_455  A
N223        N230   1.315       .  A
N223       Co224   2.088       .  S
Co224       N227   2.024       .  S
Co224       N244   2.036       .  S
Co224       N231   2.088       .  S
Co224      Cl266   2.447       .  S
C225        N263   1.333   1_455  A
N226        N233   1.318       .  A
N226        N256   1.330       .  A
N226       Co259   2.101       .  S
N227        N245   1.318       .  A
N227        N263   1.311   1_455  A
N228        C257   1.330   1_556  A
N228        N238   1.308   1_556  A
H229        C254   1.081       .  S
N230        N251   1.326   1_554  A
N231        N249   1.317       .  A
N231        N236   1.328   1_455  A
C232        N236   1.355   1_455  A
C232        C260   1.472       .  S
C232        C506   1.518   1_455  S
N233        C248   1.353       .  A
N233       Co255   2.115       .  S
C234        N262   1.341   1_556  A
C234        C237   1.463       .  S
C234        H268   1.081       .  S
C237        N258   1.361   1_556  A
C237        C618   1.514       .  S
N238        N244   1.319       .  A
N239        C265   1.333       .  A
N239        N241   1.321       .  A
N239       Co255   2.061       .  S
N240        C254   1.323   1_554  A
N241        N269   1.315       .  A
N241       Co259   2.063       .  S
H242        C265   1.081       .  S
H243        C260   1.081       .  S
N245       Co259   2.058       .  S
N246        N258   1.332       .  A
N246        N262   1.316       .  A
N246       Co255   2.118       .  S
C247        N251   1.349   1_654  A
C247        C261   1.462       .  S
C247        C870   1.491   1_554  S
C248        C267   1.474       .  S
C248        H252   1.081       .  S
N249        C260   1.347       .  A
N249       Co259   2.103       .  S
C253        N269   1.343       .  A
C253        C265   1.450       .  S
C253        C345   1.425       .  S
Co255      Cl266   2.458       .  S
N256        C267   1.352       .  A
Co259      Cl266   2.429       .  S
C267        C545   1.513       .  S
C270        N288   1.356   1_545  A
C270        C307   1.467   1_554  S
C270        C828   1.514   1_544  S
N271        N288   1.327   1_545  A
N271        N293   1.312       .  A
N271       Co308   2.097       .  S
C272        N297   1.347       .  A
C272        C310   1.473       .  S
C272        H317   1.081       .  S
H273        C314   1.081       .  S
C274        N298   1.345       .  A
C274        C278   1.472       .  S
C274        H303   1.080       .  S
Co275       N293   2.069       .  S
Co275       N283   2.023       .  S
Co275       N315   2.037       .  S
Co275       N291   2.072       .  S
Co275      Cl319   2.436       .  S
N276        C314   1.331       .  A
N276        N283   1.319       .  A
N276       Co277   2.061       .  S
Co277       N280   2.121       .  S
Co277       N297   2.111       .  S
Co277       N284   2.035       .  S
Co277      Cl319   2.447       .  S
C278        N316   1.364       .  A
C278        C489   1.535       .  S
N279        N286   1.316       .  A
N279        N309   1.316       .  A
N279       Co312   2.068       .  S
N280        N298   1.316       .  A
N280        N316   1.334       .  A
N281        C310   1.352   1_556  A
N281        N291   1.326   1_556  A
H282        C307   1.080       .  S
N283        N304   1.311   1_554  A
N284        N302   1.321       .  A
N284        N289   1.313       .  A
C285        N289   1.335       .  A
C285        C313   1.458       .  S
C285        C340   1.422       .  S
N286        C301   1.322   1_545  A
N286       Co308   2.008       .  S
C287        N315   1.326   1_556  A
C287        C290   1.443   1_556  S
C287        H321   1.082       .  S
C290        N311   1.334   1_545  A
N291        N297   1.317       .  A
N292        C318   1.343   1_545  A
N292        N294   1.317       .  A
N292       Co308   2.088       .  S
N293        C307   1.340   1_554  A
N294        N322   1.331       .  A
N294       Co312   2.106       .  S
H295        C318   1.081       .  S
H296        C313   1.082       .  S
N298       Co312   2.099       .  S
N299        N311   1.311   1_545  A
N299        N315   1.320       .  A
N299       Co308   2.026       .  S
C300        N304   1.331   1_554  A
C300        C314   1.458       .  S
C301        C320   1.432   1_565  S
C301        H305   1.081       .  S
N302        C313   1.334       .  A
N302       Co312   2.076       .  S
C306        N322   1.358       .  A
C306        C318   1.467   1_545  S
C306        C562   1.515   1_545  S
Co308      Cl319   2.437       .  S
N309        C320   1.349       .  A
C310        C632   1.511   1_554  S
Co312      Cl319   2.436       .  S
C323        C478   1.621       .  S
C323        C688   1.626       .  S
C323        C744   1.620       .  S
C323        C772   1.627       .  S
C324        C464   1.632       .  S
C324        C657   1.626       .  S
C324        C758   1.628       .  S
C324        C800   1.623       .  S
C325        N343   1.360       .  A
C325        C362   1.461       .  S
C325        C461   1.507       .  S
N326        N343   1.333       .  A
N326        N348   1.318       .  A
N326       Co363   2.121       .  S
C327        N352   1.346       .  A
C327        C365   1.464       .  S
C327        H372   1.081       .  S
H328        C369   1.082       .  S
C329        N353   1.346       .  A
C329        C333   1.469       .  S
C329        H358   1.082       .  S
Co330       N348   2.088       .  S
Co330       N338   2.053       .  S
Co330       N370   2.053       .  S
Co330       N346   2.088       .  S
Co330      Cl374   2.444       .  S
N331        C369   1.330       .  A
N331        N338   1.320       .  A
N331       Co332   2.048       .  S
Co332       N335   2.104       .  S
Co332       N352   2.099       .  S
Co332       N339   2.036       .  S
Co332      Cl374   2.451       .  S
C333        N371   1.358       .  A
C333        C450   1.520       .  S
N334        N341   1.323       .  A
N334        N364   1.317       .  A
N334       Co367   2.055       .  S
N335        N353   1.319       .  A
N335        N371   1.331       .  A
N336        C365   1.351       .  A
N336        N346   1.328       .  A
H337        C362   1.081       .  S
N338        N359   1.316       .  A
N339        N357   1.319       .  A
N339        N344   1.315       .  A
C340        N344   1.338       .  A
C340        C368   1.454       .  S
N341        C356   1.329       .  A
N341       Co363   2.058       .  S
C342        N370   1.332       .  A
C342        C345   1.448       .  S
C342        H376   1.081       .  S
C345        N366   1.345       .  A
N346        N352   1.317       .  A
N347        C373   1.345       .  A
N347        N349   1.319       .  A
N347       Co363   2.101       .  S
N348        C362   1.344       .  A
N349        N377   1.331       .  A
N349       Co367   2.098       .  S
H350        C373   1.082       .  S
H351        C368   1.082       .  S
N353       Co367   2.104       .  S
N354        N366   1.317       .  A
N354        N370   1.318       .  A
N354       Co363   2.060       .  S
C355        N359   1.340       .  A
C355        C369   1.446       .  S
C356        C375   1.448       .  S
C356        H360   1.082       .  S
N357        C368   1.329       .  A
N357       Co367   2.060       .  S
C361        N377   1.355       .  A
C361        C373   1.467       .  S
C361        C475   1.511       .  S
Co363      Cl374   2.448       .  S
N364        C375   1.339       .  A
C365        C433   1.495       .  S
Co367      Cl374   2.442       .  S
C375        C393   1.425       .  S
C378        N396   1.353       .  A
C378        C415   1.467       .  S
C378        C856   1.506       .  S
N379        N396   1.327       .  A
N379        N401   1.317       .  A
N379       Co416   2.087       .  S
C380        N405   1.351       .  A
C380        C418   1.472       .  S
C380        H425   1.081       .  S
H381        C422   1.081       .  S
C382        N406   1.343       .  A
C382        C386   1.467       .  S
C382        H411   1.080       .  S
Co383       N401   2.087       .  S
Co383       N391   2.048       .  S
Co383       N423   2.047       .  S
Co383       N399   2.087       .  S
Co383      Cl427   2.448       .  S
N384        C422   1.330       .  A
N384        N391   1.318       .  A
N384       Co385   2.051       .  S
Co385       N388   2.108       .  S
Co385       N405   2.120       .  S
Co385       N392   2.046       .  S
Co385      Cl427   2.445       .  S
C386        N424   1.359       .  A
C386        C646   1.518       .  S
N387        N394   1.316       .  A
N387        N417   1.315       .  A
N387       Co420   2.054       .  S
N388        N406   1.317       .  A
N388        N424   1.330       .  A
N389        C418   1.350       .  A
N389        N399   1.328       .  A
H390        C415   1.081       .  S
N391        N412   1.316       .  A
N392        N410   1.323       .  A
N392        N397   1.314       .  A
C393        N397   1.337       .  A
C393        C421   1.450       .  S
N394        C409   1.333       .  A
N394       Co416   2.047       .  S
C395        N423   1.331       .  A
C395        C398   1.447       .  S
C395        H429   1.081       .  S
C398        N419   1.338       .  A
N399        N405   1.319       .  A
N400        C426   1.339       .  A
N400        N402   1.318       .  A
N400       Co416   2.089       .  S
N401        C415   1.342       .  A
N402        N430   1.333       .  A
N402       Co420   2.120       .  S
H403        C426   1.098       .  S
H404        C421   1.082       .  S
N406       Co420   2.092       .  S
N407        N419   1.314       .  A
N407        N423   1.320       .  A
N407       Co416   2.047       .  S
C408        N412   1.340       .  A
C408        C422   1.450       .  S
C409        C428   1.449       .  S
C409        H413   1.081       .  S
N410        C421   1.334       .  A
N410       Co420   2.065       .  S
C414        N430   1.364       .  A
C414        C426   1.466       .  S
C414        C534   1.526       .  S
Co416      Cl427   2.440       .  S
N417        C428   1.343       .  A
C418        C590   1.504       .  S
Co420      Cl427   2.445       .  S
C431        C447   1.632       .  S
C431        C702   1.633       .  S
C431        C716   1.627       .  S
C431        C814   1.627       .  S
C432        C436   1.622       .  S
C432        C671   1.617       .  S
C432        C727   1.613       .  S
C432        C786   1.616       .  S
C433        C434   1.399       .  A
C433        C438   1.402       .  A
C434        C435   1.420       .  A
C434        C439   1.456       .  S
C435        C436   1.453       .  A
C435        C442   1.450       .  S
C436        C437   1.450       .  A
C437        C438   1.424       .  A
C437        C440   1.449       .  S
C438        C441   1.454       .  S
C439        N446   1.157       .  T
C440        N445   1.157       .  T
C441        N443   1.157       .  T
C442        N444   1.158       .  T
C447        C448   1.453       .  A
C447        C452   1.450       .  A
C448        C449   1.426       .  A
C448        C453   1.449       .  S
C449        C450   1.407       .  A
C449        C456   1.455       .  S
C450        C451   1.409       .  A
C451        C452   1.429       .  A
C451        C454   1.454       .  S
C452        C455   1.449       .  S
C453        N460   1.158       .  T
C454        N459   1.158       .  T
C455        N457   1.157       .  T
C456        N458   1.158       .  T
C461        C462   1.405       .  A
C461        C466   1.400       .  A
C462        C463   1.429       .  A
C462        C467   1.453       .  S
C463        C464   1.450       .  A
C463        C470   1.449       .  S
C464        C465   1.458       .  A
C465        C466   1.426       .  A
C465        C468   1.449       .  S
C466        C469   1.458       .  S
C467        N474   1.157       .  T
C468        N473   1.158       .  T
C469        N471   1.158       .  T
C470        N472   1.157       .  T
C475        C476   1.411       .  A
C475        C480   1.403       .  A
C476        C477   1.429       .  A
C476        C481   1.453       .  S
C477        C478   1.449       .  A
C477        C484   1.450       .  S
C478        C479   1.448       .  A
C479        C480   1.417       .  A
C479        C482   1.449       .  S
C480        C483   1.454       .  S
C481        N488   1.158       .  T
C482        N487   1.158       .  T
C483        N485   1.157       .  T
C484        N486   1.157       .  T
C489        C490   1.412       .  A
C489        C494   1.417       .  A
C490        C491   1.432       .  A
C490        C495   1.454       .  S
C491        C492   1.452       .  A
C491        C498   1.451       .  S
C492        C493   1.446       .  A
C493        C494   1.431       .  A
C493        C496   1.449       .  S
C494        C497   1.454       .  S
C495        N502   1.157       .  T
C496        N501   1.157       .  T
C497        N499   1.158       .  T
C498        N500   1.158       .  T
C503        C504   1.454       .  A
C503        C508   1.448       .  A
C504        C505   1.426   1_655  A
C504        C509   1.449   1_655  S
C505        C506   1.407   1_455  A
C505        C512   1.456       .  S
C506        C507   1.411       .  A
C507        C508   1.427       .  A
C507        C510   1.455       .  S
C508        C511   1.449       .  S
C509        N516   1.158       .  T
C510        N515   1.158       .  T
C511        N513   1.157       .  T
C512        N514   1.158       .  T
C517        C518   1.447       .  A
C517        C522   1.454       .  A
C518        C519   1.426       .  A
C518        C523   1.448       .  S
C519        C520   1.404       .  A
C519        C526   1.454   1_655  S
C520        C521   1.400       .  A
C521        C522   1.421       .  A
C521        C524   1.456       .  S
C522        C525   1.451       .  S
C523        N530   1.157       .  T
C524        N529   1.157       .  T
C525        N527   1.158       .  T
C526        N528   1.157       .  T
C531        C532   1.447       .  A
C531        C536   1.450       .  A
C532        C533   1.428       .  A
C532        C537   1.451       .  S
C533        C534   1.415       .  A
C533        C540   1.455       .  S
C534        C535   1.410       .  A
C535        C536   1.431       .  A
C535        C538   1.455       .  S
C536        C539   1.449       .  S
C537        N544   1.157       .  T
C538        N543   1.157       .  T
C539        N541   1.158       .  T
C540        N542   1.158       .  T
C545        C546   1.404       .  A
C545        C550   1.405       .  A
C546        C547   1.428       .  A
C546        C551   1.455       .  S
C547        C548   1.453       .  A
C547        C554   1.448       .  S
C548        C549   1.450       .  A
C549        C550   1.430       .  A
C549        C552   1.449       .  S
C550        C553   1.453       .  S
C551        N558   1.157       .  T
C552        N557   1.157       .  T
C553        N555   1.157       .  T
C554        N556   1.158       .  T
C559        C560   1.448       .  A
C559        C564   1.448       .  A
C560        C561   1.428       .  A
C560        C565   1.449       .  S
C561        C562   1.411       .  A
C561        C568   1.454       .  S
C562        C563   1.407       .  A
C563        C564   1.419       .  A
C563        C566   1.455       .  S
C564        C567   1.449       .  S
C565        N572   1.157       .  T
C566        N571   1.158       .  T
C567        N569   1.158       .  T
C568        N570   1.158   1_565  T
C573        C574   1.450       .  A
C573        C578   1.443       .  A
C574        C575   1.429       .  A
C574        C579   1.450       .  S
C575        C576   1.411       .  A
C575        C582   1.454   1_565  S
C576        C577   1.420       .  A
C577        C578   1.429       .  A
C577        C580   1.454       .  S
C578        C581   1.451       .  S
C579        N586   1.158   1_565  T
C580        N585   1.158       .  T
C581        N583   1.157       .  T
C582        N584   1.158       .  T
C587        C588   1.452       .  A
C587        C592   1.449       .  A
C588        C589   1.422       .  A
C588        C593   1.449       .  S
C589        C590   1.401       .  A
C589        C596   1.455       .  S
C590        C591   1.405       .  A
C591        C592   1.427       .  A
C591        C594   1.453       .  S
C592        C595   1.449       .  S
C593        N600   1.158       .  T
C594        N599   1.157       .  T
C595        N597   1.157       .  T
C596        N598   1.157       .  T
C601        C602   1.402       .  A
C601        C606   1.402       .  A
C602        C603   1.425       .  A
C602        C607   1.456       .  S
C603        C604   1.454       .  A
C603        C610   1.450       .  S
C604        C605   1.453       .  A
C605        C606   1.427       .  A
C605        C608   1.449       .  S
C606        C609   1.454       .  S
C607        N614   1.157       .  T
C608        N613   1.157       .  T
C609        N611   1.157       .  T
C610        N612   1.158       .  T
C615        C616   1.453       .  A
C615        C620   1.445       .  A
C616        C617   1.426       .  A
C616        C621   1.451       .  S
C617        C618   1.406       .  A
C617        C624   1.456   1_556  S
C618        C619   1.411       .  A
C619        C620   1.424       .  A
C619        C622   1.455       .  S
C620        C623   1.451       .  S
C621        N628   1.158   1_556  T
C622        N627   1.158       .  T
C623        N625   1.157       .  T
C624        N626   1.157       .  T
C629        C630   1.451       .  A
C629        C634   1.451       .  A
C630        C631   1.426       .  A
C630        C635   1.449       .  S
C631        C632   1.408       .  A
C631        C638   1.457       .  S
C632        C633   1.406       .  A
C633        C634   1.423       .  A
C633        C636   1.455       .  S
C634        C637   1.449       .  S
C635        N642   1.158       .  T
C636        N641   1.158   1_556  T
C637        N639   1.157       .  T
C638        N640   1.158       .  T
C643        C644   1.455       .  A
C643        C648   1.446       .  A
C644        C645   1.426       .  A
C644        C649   1.451       .  S
C645        C646   1.406       .  A
C645        C652   1.457       .  S
C646        C647   1.413       .  A
C647        C648   1.427       .  A
C647        C650   1.454       .  S
C648        C651   1.452       .  S
C649        N656   1.158       .  T
C650        N655   1.158       .  T
C651        N653   1.157       .  T
C652        N654   1.157       .  T
C657        C658   1.453       .  A
C657        C662   1.451       .  A
C658        C659   1.427       .  A
C658        C663   1.449       .  S
C659        C660   1.404       .  A
C659        C666   1.455       .  S
C660        C661   1.401       .  A
C661        C662   1.425       .  A
C661        C664   1.455       .  S
C662        C665   1.448       .  S
C663        N670   1.158       .  T
C664        N669   1.157       .  T
C665        N667   1.157       .  T
C666        N668   1.158       .  T
C671        C672   1.451       .  A
C671        C676   1.451       .  A
C672        C673   1.421       .  A
C672        C677   1.449       .  S
C673        C674   1.399       .  A
C673        C680   1.455   1_544  S
C674        C675   1.401       .  A
C675        C676   1.421       .  A
C675        C678   1.455       .  S
C676        C679   1.449       .  S
C677        N684   1.157       .  T
C678        N683   1.157       .  T
C679        N681   1.158       .  T
C680        N682   1.157       .  T
C685        C686   1.411       .  A
C685        C690   1.412       .  A
C686        C687   1.427       .  A
C686        C691   1.453   1_554  S
C687        C688   1.449       .  A
C687        C694   1.451       .  S
C688        C689   1.450       .  A
C689        C690   1.428       .  A
C689        C692   1.450       .  S
C690        C693   1.456       .  S
C691        N698   1.158       .  T
C692        N697   1.158       .  T
C693        N695   1.157       .  T
C694        N696   1.157       .  T
C699        C700   1.403       .  A
C699        C704   1.403       .  A
C700        C701   1.429       .  A
C700        C705   1.455   1_545  S
C701        C702   1.453       .  A
C701        C708   1.448       .  S
C702        C703   1.455       .  A
C703        C704   1.429       .  A
C703        C706   1.449       .  S
C704        C707   1.455       .  S
C705        N712   1.158       .  T
C706        N711   1.158       .  T
C707        N709   1.157       .  T
C708        N710   1.157       .  T
C713        C714   1.413       .  A
C713        C718   1.409       .  A
C714        C715   1.428       .  A
C714        C719   1.454       .  S
C715        C716   1.446       .  A
C715        C722   1.451       .  S
C716        C717   1.452       .  A
C717        C718   1.429       .  A
C717        C720   1.451       .  S
C718        C721   1.455       .  S
C719        N726   1.158       .  T
C720        N725   1.158       .  T
C721        N723   1.157       .  T
C722        N724   1.157       .  T
C727        C728   1.446       .  A
C727        C732   1.451       .  A
C728        C729   1.420       .  A
C728        C733   1.449       .  S
C729        C730   1.407       .  A
C729        C736   1.455       .  S
C730        C731   1.403   1_554  A
C731        C732   1.416   1_556  A
C731        C734   1.455       .  S
C732        C735   1.450   1_554  S
C733        N740   1.157       .  T
C734        N739   1.158       .  T
C735        N737   1.158       .  T
C736        N738   1.158   1_455  T
C741        C742   1.399       .  A
C741        C746   1.399       .  A
C742        C743   1.422       .  A
C742        C747   1.458       .  S
C743        C744   1.456       .  A
C743        C750   1.449       .  S
C744        C745   1.450       .  A
C745        C746   1.422       .  A
C745        C748   1.450       .  S
C746        C749   1.454   1_554  S
C747        N754   1.158       .  T
C748        N753   1.157       .  T
C749        N751   1.157       .  T
C750        N752   1.158       .  T
C755        C756   1.411       .  A
C755        C760   1.410       .  A
C756        C757   1.428       .  A
C756        C761   1.452   1_455  S
C757        C758   1.446       .  A
C757        C764   1.449       .  S
C758        C759   1.453       .  A
C759        C760   1.428       .  A
C759        C762   1.450       .  S
C760        C763   1.456       .  S
C761        N768   1.157       .  T
C762        N767   1.158       .  T
C763        N765   1.158       .  T
C764        N766   1.157       .  T
C769        C770   1.413       .  A
C769        C774   1.407       .  A
C770        C771   1.430       .  A
C770        C775   1.454       .  S
C771        C772   1.447       .  A
C771        C778   1.450       .  S
C772        C773   1.451       .  A
C773        C774   1.423       .  A
C773        C776   1.450       .  S
C774        C777   1.455       .  S
C775        N782   1.158       .  T
C776        N781   1.158       .  T
C777        N779   1.158       .  T
C778        N780   1.157       .  T
C783        C784   1.407   1_455  A
C783        C788   1.409       .  A
C784        C785   1.425   1_655  A
C784        C789   1.456       .  S
C785        C786   1.452       .  A
C785        C792   1.451   1_455  S
C786        C787   1.446       .  A
C787        C788   1.421       .  A
C787        C790   1.450       .  S
C788        C791   1.455   1_545  S
C789        N796   1.158       .  T
C790        N795   1.157       .  T
C791        N793   1.158       .  T
C792        N794   1.158       .  T
C797        C798   1.412       .  A
C797        C802   1.407   1_455  A
C798        C799   1.424       .  A
C798        C803   1.455       .  S
C799        C800   1.446       .  A
C799        C806   1.451       .  S
C800        C801   1.453       .  A
C801        C802   1.428   1_455  A
C801        C804   1.450   1_455  S
C802        C805   1.456       .  S
C803        N810   1.158       .  T
C804        N809   1.158       .  T
C805        N807   1.158       .  T
C806        N808   1.157       .  T
C811        C812   1.409   1_545  A
C811        C816   1.410       .  A
C812        C813   1.428   1_565  A
C812        C817   1.456       .  S
C813        C814   1.453       .  A
C813        C820   1.450   1_545  S
C814        C815   1.449       .  A
C815        C816   1.426       .  A
C815        C818   1.450       .  S
C816        C819   1.455       .  S
C817        N824   1.158       .  T
C818        N823   1.157       .  T
C819        N821   1.158       .  T
C820        N822   1.158       .  T
C825        C826   1.452       .  A
C825        C830   1.447       .  A
C826        C827   1.423       .  A
C826        C831   1.453       .  S
C827        C828   1.410       .  A
C827        C834   1.457   1_565  S
C828        C829   1.410       .  A
C829        C830   1.422       .  A
C829        C832   1.454   1_556  S
C830        C833   1.452       .  S
C831        N838   1.159   1_565  T
C832        N837   1.158       .  T
C833        N835   1.157       .  T
C834        N836   1.158       .  T
C839        C840   1.450       .  A
C839        C844   1.448       .  A
C840        C841   1.422       .  A
C840        C845   1.451       .  S
C841        C842   1.409       .  A
C841        C848   1.456   1_655  S
C842        C843   1.408       .  A
C843        C844   1.422       .  A
C843        C846   1.455       .  S
C844        C847   1.451       .  S
C845        N852   1.158   1_655  T
C846        N851   1.158   1_565  T
C847        N849   1.157       .  T
C848        N850   1.158       .  T
C853        C854   1.450       .  A
C853        C858   1.450       .  A
C854        C855   1.423       .  A
C854        C859   1.451       .  S
C855        C856   1.408       .  A
C855        C862   1.456       .  S
C856        C857   1.405       .  A
C857        C858   1.420       .  A
C857        C860   1.456       .  S
C858        C861   1.449       .  S
C859        N866   1.157       .  T
C860        N865   1.158       .  T
C861        N863   1.158       .  T
C862        N864   1.158       .  T
C867        C868   1.457       .  A
C867        C872   1.452       .  A
C868        C869   1.423       .  A
C868        C873   1.450       .  S
C869        C870   1.398       .  A
C869        C876   1.458       .  S
C870        C871   1.397       .  A
C871        C872   1.420       .  A
C871        C874   1.455   1_556  S
C872        C875   1.450       .  S
C873        N880   1.158       .  T
C874        N879   1.157   1_655  T
C875        N877   1.157       .  T
C876        N878   1.158       .  T
