geometry optimzed in LAMMPS
_audit_creation_date              2020-11-30 
_audit_creation_method            'lammps2cif' 
_symmetry_space_group_name_H-M    'P1' 
_symmetry_Int_Tables_number       1 
_symmetry_cell_setting            triclinic 
loop_ 
_symmetry_equiv_pos_as_xyz 
  x,y,z 
_cell_length_a                    35.95054116 
_cell_length_b                    35.92441778796935 
_cell_length_c                    34.52733513733008 
_cell_angle_alpha                 90.01330599429656 
_cell_angle_beta                  90.12886293542303 
_cell_angle_gamma                 120.59715337826626 
loop_ 
_atom_site_label 
_atom_site_type_symbol 
_atom_site_fract_x 
_atom_site_fract_y 
_atom_site_fract_z 
_atom_site_charge 
C1          C  0.00328451  0.00377800  0.78940620     0.45800
H2          H  0.00307133  0.00552475  0.82142859    -0.03200
C3          C  0.99679568  0.49820780  0.71545169     0.45800
H4          H  0.99588114  0.49844073  0.68327075    -0.03200
C5          C  0.46237495  0.45371750  0.77080670    -0.16900
C6          C  0.50237499  0.04210325  0.77212390    -0.16700
C7          C  0.03789290  0.50023609  0.77219841    -0.17100
C8          C  0.46264020  0.45497559  0.73112641    -0.17000
C9          C  0.00252313  0.04055049  0.73049188    -0.16600
C10         C  0.04401349  0.00422853  0.73273288    -0.16900
Zn11       Zn  0.33703807  0.22288213  0.02231064     1.49700
Zn12       Zn  0.33511828  0.17096845  0.94388107     1.49400
Zn13       Zn  0.38109808  0.16565468  0.02143519     1.49100
Zn14       Zn  0.27973683  0.12238613  0.02017807     1.49500
O15         O  0.33353938  0.17079301  0.00131585    -1.83800
O16         O  0.32987973  0.25515895  0.97870067    -0.74400
O17         O  0.39295708  0.17861924  0.92401535    -0.74200
O18         O  0.41965851  0.21659263  0.05363858    -0.73800
O19         O  0.32592503  0.21986057  0.92417238    -0.74400
O20         O  0.39263848  0.26022767  0.05282437    -0.74000
O21         O  0.42017985  0.16893187  0.97849568    -0.74600
O22         O  0.29004900  0.08576679  0.05563883    -0.74000
O23         O  0.28647541  0.11265146  0.92346145    -0.74800
O24         O  0.36081137  0.11132987  0.05290807    -0.74200
O25         O  0.24914983  0.08164429  0.97711786    -0.74600
O26         O  0.24075085  0.13950112  0.04694766    -0.74500
O27         O  0.28600199  0.20994411  0.05491634    -0.74300
C28         C  0.32408261  0.24996553  0.94228804     0.77500
C29         C  0.42253677  0.17595975  0.94221444     0.78000
C30         C  0.42192898  0.25196701  0.06256443     0.76900
C31         C  0.32298709  0.08317076  0.06396098     0.77300
C32         C  0.25551932  0.08068122  0.94110320     0.78400
C33         C  0.24919346  0.17625137  0.05961964     0.77500
C34         C  0.32865698  0.33043371  0.87240458     0.80600
N35         N  0.33474009  0.29951695  0.88901192    -0.77800
C36         C  0.31357514  0.27922383  0.92169722     0.83000
N37         N  0.28603162  0.28992452  0.93804173    -0.77700
C38         C  0.27792166  0.31914925  0.92098958     0.83100
N39         N  0.29967359  0.33989474  0.88829019    -0.79400
Zn40       Zn  0.21878371  0.34032329  0.02070606     1.49700
Zn41       Zn  0.16159830  0.38416248  0.01985556     1.49400
Zn42       Zn  0.16765154  0.33754883  0.94183636     1.49100
Zn43       Zn  0.11753216  0.28245485  0.01851575     1.49500
O44         O  0.16645714  0.33616535  0.99961165    -1.83800
O45         O  0.25547274  0.39549932  0.05154489    -0.74400
O46         O  0.16625453  0.42332040  0.97664611    -0.74200
O47         O  0.21821130  0.33107705  0.92225387    -0.73800
O48         O  0.21233119  0.42300914  0.05240060    -0.74400
O49         O  0.25255417  0.33500641  0.97733119    -0.74000
O50         O  0.17478559  0.39517270  0.92220434    -0.74600
O51         O  0.07950537  0.24994640  0.97392748    -0.74000
O52         O  0.10702305  0.36496359  0.05091492    -0.74800
O53         O  0.11064070  0.28710400  0.92016429    -0.74200
O54         O  0.07891992  0.29370492  0.05134548    -0.74600
O55         O  0.13468539  0.24480392  0.04853275    -0.74500
O56         O  0.20566412  0.28916681  0.05328705    -0.74300
C57         C  0.24755703  0.42497956  0.06130512     0.77500
C58         C  0.17320099  0.42533660  0.94039530     0.78000
C59         C  0.24850465  0.33004979  0.94076999     0.76900
C60         C  0.07913644  0.25534693  0.93756415     0.77300
C61         C  0.07746138  0.32713500  0.06062577     0.78400
C62         C  0.17179007  0.25306168  0.06007920     0.77500
C63         C  0.15288158  0.15635231  0.11547999     0.80600
N64         N  0.14814241  0.18966397  0.10277721    -0.77800
C65         C  0.17730867  0.21907591  0.07761989     0.83000
N66         N  0.21084532  0.21506795  0.06538161    -0.77700
C67         C  0.21498627  0.18138013  0.07686682     0.83100
N68         N  0.18578489  0.15177192  0.10167779    -0.79400
C69         C  0.16607849  0.50488966  0.87646603     0.80600
N70         N  0.20185514  0.04140867  0.89087112    -0.77800
C71         C  0.22609715  0.04074378  0.92048774     0.83000
N72         N  0.21395078  0.50360065  0.93655138    -0.77700
C73         C  0.18309890  0.46571417  0.92083543     0.83100
N74         N  0.15883193  0.46631932  0.89087131    -0.79400
C75         C  0.50102961  0.34348277  0.12355235     0.80600
N76         N  0.03925779  0.34836886  0.10664243    -0.77800
C77         C  0.03832901  0.32060996  0.07958200     0.83000
N78         N  0.49943292  0.28869746  0.06885610    -0.77700
C79         C  0.46188592  0.28483260  0.08107477     0.83100
N80         N  0.46256446  0.31233373  0.10839838    -0.79400
C81         C  0.50061427  0.16815278  0.87631338     0.80600
N82         N  0.46249505  0.16145324  0.89144315    -0.77800
C83         C  0.46262099  0.18460183  0.92268449     0.83000
N84         N  0.50077395  0.21347277  0.93925684    -0.77700
C85         C  0.03904859  0.22539925  0.91697825     0.83100
N86         N  0.03856633  0.20194480  0.88588705    -0.79400
C87         C  0.33800739  0.00524985  0.12135352     0.80600
N88         N  0.34389893  0.04354858  0.10823927    -0.77800
C89         C  0.31548541  0.04361231  0.08238336     0.83000
N90         N  0.28566188  0.50266586  0.06776946    -0.77700
C91         C  0.28090460  0.46466569  0.07979842     0.83100
N92         N  0.30911330  0.46463711  0.10586904    -0.79400
Zn93       Zn  0.33722029  0.11789711  0.51684676     1.49700
Zn94       Zn  0.28042713  0.16162916  0.51799822     1.49400
Zn95       Zn  0.38231463  0.21983607  0.51564010     1.49100
Zn96       Zn  0.33164887  0.16534261  0.43888781     1.49500
O97         O  0.33290322  0.16621541  0.49667026    -1.83800
O98         O  0.28715457  0.07961439  0.55000137    -0.74400
O99         O  0.29368031  0.21385979  0.54877431    -0.74200
O100        O  0.41908380  0.20767819  0.55065714    -0.73800
O101        O  0.24431525  0.10736669  0.55043551    -0.74400
O102        O  0.39185032  0.13656331  0.54784227    -0.74000
O103        O  0.36462068  0.25847797  0.54367977    -0.74600
O104        O  0.38970207  0.21510685  0.41748822    -0.74000
O105        O  0.24538786  0.16517399  0.47488525    -0.74800
O106        O  0.42245671  0.25122487  0.47138566    -0.74200
O107        O  0.28087296  0.17246251  0.41985011    -0.74600
O108        O  0.32316801  0.10706668  0.41911926    -0.74500
O109        O  0.33115030  0.07838373  0.47351263    -0.74300
C110        C  0.25236642  0.07790109  0.55992601     0.77500
C111        C  0.32741787  0.25032981  0.55482708     0.78000
C112        C  0.42071525  0.17410492  0.55910171     0.76900
C113        C  0.42237316  0.24582895  0.43493558     0.77300
C114        C  0.24966048  0.17148266  0.43852157     0.78400
C115        C  0.32401914  0.07646001  0.43726819     0.77500
C116        C  0.34437511  0.34472973  0.61308280     0.80600
N117        N  0.35025874  0.31289944  0.59821793    -0.77800
C118        C  0.32166740  0.28425944  0.57225265     0.83000
N119        N  0.28729726  0.28751831  0.56113621    -0.77700
C120        C  0.28199289  0.31988907  0.57469311     0.83100
N121        N  0.31063299  0.34862611  0.60051657    -0.79400
Zn122      Zn  0.21775657  0.38038446  0.51958051     1.49700
Zn123      Zn  0.15968931  0.27839005  0.52033784     1.49400
Zn124      Zn  0.11612004  0.33526074  0.51760303     1.49100
Zn125      Zn  0.16733210  0.33239267  0.44135608     1.49500
O126        O  0.16517480  0.33148262  0.49905252    -1.83800
O127        O  0.25494883  0.36221569  0.54830624    -0.74400
O128        O  0.10414259  0.24174063  0.55129154    -0.74200
O129        O  0.13371389  0.38979915  0.54824374    -0.73800
O130        O  0.21120394  0.29093080  0.55192927    -0.74400
O131        O  0.20466729  0.41714034  0.55333914    -0.74000
O132        O  0.07654666  0.28472857  0.54987690    -0.74600
O133        O  0.10997555  0.32436978  0.41944258    -0.74000
O134        O  0.16470612  0.24418230  0.47729010    -0.74800
O135        O  0.07830730  0.32946653  0.47300218    -0.74200
O136        O  0.17451181  0.28195266  0.42308709    -0.74600
O137        O  0.21913354  0.39028788  0.42118755    -0.74500
O138        O  0.25211621  0.42068634  0.47673692    -0.74300
C139        C  0.24729070  0.32493049  0.55852745     0.77500
C140        C  0.07436212  0.24967898  0.55980701     0.78000
C141        C  0.17082814  0.41874858  0.56031124     0.76900
C142        C  0.07816931  0.32372406  0.43665793     0.77300
C143        C  0.17261108  0.25000037  0.44121962     0.78400
C144        C  0.24941013  0.42187659  0.44008328     0.77500
C145        C  0.15964587  0.99964486  0.61999567     0.80600
N146        N  0.19168542  0.03802488  0.60554840    -0.77800
C147        C  0.21962899  0.03827016  0.57899795     0.83000
N148        N  0.21544721  0.00040556  0.56715318    -0.77700
C149        C  0.17637677  0.45763038  0.57913272     0.83100
N150        N  0.14644814  0.45654293  0.60372946    -0.79400
C151        C  0.49727483  0.15916954  0.62013990     0.80600
N152        N  0.45932161  0.15359418  0.60595507    -0.77800
C153        C  0.45995735  0.18048587  0.57792819     0.83000
N154        N  0.99661659  0.21280602  0.56567597    -0.77700
C155        C  0.03413318  0.21671024  0.57799655     0.83100
N156        N  0.03314345  0.18824753  0.60426139    -0.79400
C157        C  0.50085809  0.33026549  0.36768467     0.80600
N158        N  0.03878726  0.33689412  0.38475949    -0.77800
C159        C  0.03831290  0.31330703  0.41571742     0.83000
N160        N  0.50069431  0.28264829  0.42863699    -0.77700
C161        C  0.46251241  0.27510093  0.41382616     0.83100
N162        N  0.46271806  0.29930778  0.38358505    -0.79400
C163        C  0.16292903  0.16475307  0.37467134     0.80600
N164        N  0.19431303  0.15767292  0.38881739    -0.77800
C165        C  0.21897257  0.18123040  0.41940572     0.83000
N166        N  0.21156418  0.21112622  0.43602489    -0.77700
C167        C  0.18168386  0.21955122  0.42112755     0.83100
N168        N  0.15732376  0.19619624  0.39062339    -0.79400
C169        C  0.33598817  0.50362737  0.37548498     0.80600
N170        N  0.33542474  0.03563373  0.38558077    -0.77800
C171        C  0.31370641  0.03594855  0.41759586     0.83000
N172        N  0.28895207  0.50027731  0.43823862    -0.77700
C173        C  0.28066277  0.46288388  0.42097883     0.83100
N174        N  0.30443736  0.46452248  0.38963195    -0.79400
C175        C  0.00820786  0.50451519  0.21385581     0.45800
H176        H  0.01134390  0.50579834  0.18186436    -0.03200
C177        C  0.99615653  0.99894406  0.28875911     0.45800
H178        H  0.99544403  0.00266759  0.32053523    -0.03200
C179        C  0.45314611  0.98866143  0.22734224    -0.16900
C180        C  0.00809392  0.46558008  0.23250192    -0.16700
C181        C  0.03630332  0.03441128  0.22970423    -0.17100
C182        C  0.46062378  0.50130027  0.26994611    -0.17000
C183        C  0.00391882  0.46375544  0.27214688    -0.16600
C184        C  0.03585395  0.03773785  0.26956485    -0.16900
C185        C  0.35223796  0.95717491  0.32785323    -0.11900
C186        C  0.36635360  0.50542207  0.34486836     0.05100
C187        C  0.40973753  0.53993349  0.34291248    -0.07200
C188        C  0.43900905  0.53735266  0.31804629    -0.08000
C189        C  0.42614447  0.50200406  0.29327418    -0.02500
C190        C  0.38207590  0.95495393  0.30340791     0.04300
N191        N  0.37659295  0.91377167  0.29455574     0.66800
H192        H  0.32551115  0.92716025  0.33869369     0.15700
H193        H  0.47241308  0.56351491  0.31805107     0.15400
N194        N  0.42524463  0.57758677  0.36662886     0.74500
O195        O  0.38939512  0.41719988  0.25658229    -0.38900
O196        O  0.36648574  0.89896173  0.26058938    -0.38900
O197        O  0.44793875  0.58196764  0.39610709    -0.39600
O198        O  0.38122007  0.09228460  0.31242456    -0.39700
C199        C  0.05727870  0.09064875  0.32320661    -0.11900
C200        C  0.07015679  0.07254574  0.29399899     0.05100
C201        C  0.11428548  0.08542945  0.29115667    -0.07200
C202        C  0.14441282  0.11634570  0.31702692    -0.08000
C203        C  0.13131607  0.13481988  0.34583569    -0.02500
C204        C  0.08718223  0.12186877  0.34847718     0.04300
N205        N  0.07131486  0.13806310  0.37804575     0.66800
H206        H  0.02448147  0.08032166  0.32723056     0.15700
H207        H  0.17796269  0.12510947  0.31519464     0.15400
N208        N  0.12853019  0.06458434  0.26491608     0.74500
O209        O  0.06340478  0.16760061  0.36992117    -0.38900
O210        O  0.05672584  0.11698132  0.40903860    -0.38900
O211        O  0.15487280  0.08639666  0.23848579    -0.39600
O212        O  0.12391899  0.02854049  0.27424404    -0.39700
C213        C  0.46880343  0.37353451  0.34611237    -0.11900
C214        C  0.50084213  0.36270563  0.34104326     0.05100
C215        C  0.03251753  0.38299199  0.31317886    -0.07200
C216        C  0.03261253  0.41557909  0.29070624    -0.08000
C217        C  0.00218350  0.42864319  0.29680383    -0.02500
C218        C  0.46904680  0.40695200  0.32517411     0.04300
N219        N  0.43529094  0.41595308  0.33260482     0.66800
H220        H  0.44384259  0.35689708  0.36768839     0.15700
H221        H  0.05734010  0.43140681  0.26885267     0.15400
N222        N  0.06420905  0.37112320  0.30578255     0.74500
O223        O  0.94843804  0.44791905  0.36112649    -0.38900
O224        O  0.39680212  0.38636181  0.32637238    -0.38900
O225        O  0.05814720  0.34518955  0.27854148    -0.39600
O226        O  0.60315571  0.39837465  0.32215450    -0.39700
C227        C  0.38355802  0.47127259  0.14618335    -0.11900
C228        C  0.36840145  0.00340795  0.14862944     0.05100
C229        C  0.39162076  0.03513769  0.17701148    -0.07200
C230        C  0.41863489  0.02953726  0.20272533    -0.08000
C231        C  0.42290306  0.99275425  0.20065017    -0.02500
C232        C  0.41252224  0.46997824  0.17229253     0.04300
N233        N  0.42314589  0.43701561  0.16727543     0.66800
H234        H  0.37106194  0.44807686  0.12261351     0.15700
H235        H  0.43660391  0.05433385  0.22398801     0.15400
N236        N  0.38771348  0.07264968  0.18047840     0.74500
O237        O  0.39621123  0.39917525  0.17825329    -0.38900
O238        O  0.45006872  0.44195546  0.14144487    -0.40500
O239        O  0.35356285  0.06943043  0.19386652    -0.39600
O240        O  0.41805602  0.10893215  0.16930569    -0.39700
C241        C  0.53939666  0.41461541  0.15661539    -0.11900
C242        C  0.50256101  0.37318491  0.15401554     0.05100
C243        C  0.96952139  0.36063060  0.17923722    -0.07200
C244        C  0.97310180  0.39044863  0.20727283    -0.08000
C245        C  0.00911889  0.43232700  0.20814115    -0.02500
C246        C  0.54195065  0.44452041  0.18385667     0.04300
N247        N  0.58075066  0.48567916  0.18643956     0.66800
H248        H  0.56634449  0.42418689  0.13711044     0.15700
H249        H  0.94662079  0.38158644  0.22718266     0.15400
N250        N  0.93126599  0.31888186  0.17850144     0.74500
O251        O  0.09419986  0.50958301  0.15582315    -0.38900
O252        O  0.60806988  0.49169875  0.21237097    -0.38900
O253        O  0.92698696  0.29063304  0.20266521    -0.39600
O254        O  0.39632011  0.31244442  0.16685191    -0.39700
C255        C  0.07883857  0.05282850  0.16894244    -0.11900
C256        C  0.06699174  0.06761039  0.20166572     0.05100
C257        C  0.08183611  0.11238052  0.20447214    -0.07200
C258        C  0.10988511  0.14083697  0.17607204    -0.08000
C259        C  0.12296720  0.12558957  0.14451386    -0.02500
C260        C  0.10711882  0.08100616  0.14116119     0.04300
N261        N  0.11788630  0.06337692  0.10886057     0.66800
H262        H  0.06575287  0.01878818  0.16418801     0.15700
H263        H  0.12106693  0.17503451  0.17841203     0.15400
N264        N  0.06622882  0.12917881  0.23372151     0.74500
O265        O  0.15027466  0.05863137  0.11114144    -0.38900
O266        O  0.08995470  0.04340212  0.08284326    -0.38900
O267        O  0.09272335  0.16138809  0.25363874    -0.39600
O268        O  0.02668285  0.11757923  0.23437446    -0.39700
C269        C  0.38504056  0.41244325  0.79113509    -0.11900
C270        C  0.42714311  0.41955576  0.79446318     0.05100
C271        C  0.43527556  0.39508245  0.82145808    -0.07200
C272        C  0.40181261  0.36473901  0.84449187    -0.08000
C273        C  0.36022957  0.35910065  0.84292840    -0.02500
C274        C  0.35186669  0.38332813  0.81575612     0.04300
N275        N  0.31034702  0.37936816  0.81313098     0.66800
H276        H  0.37833806  0.43098793  0.77047770     0.15700
H277        H  0.40939677  0.34693606  0.86525605     0.15400
N278        N  0.47697681  0.39967521  0.82577271     0.74500
O279        O  0.30355892  0.40603506  0.83091385    -0.38900
O280        O  0.28428110  0.35580305  0.78708898    -0.38900
O281        O  0.48092306  0.36735958  0.81878645    -0.39600
O282        O  0.50388862  0.42855562  0.84826840    -0.39700
C283        C  0.03383812  0.11835176  0.79183742    -0.11900
C284        C  0.50024434  0.07519764  0.79646566     0.05100
C285        C  0.46687331  0.06320010  0.82371256    -0.07200
C286        C  0.46679283  0.09438427  0.84794408    -0.08000
C287        C  0.50021679  0.13778065  0.84668491    -0.02500
C288        C  0.03437794  0.15032891  0.81574571     0.04300
N289        N  0.07058566  0.19334479  0.81364451     0.66800
H290        H  0.06106168  0.12677580  0.77297468     0.15700
H291        H  0.44099485  0.08407449  0.86890336     0.15400
N292        N  0.43255037  0.01939375  0.82721005     0.74500
O293        O  0.10544947  0.20232164  0.83034365    -0.38900
O294        O  0.07069087  0.21908529  0.78873121    -0.38900
O295        O  0.43168581  0.99759238  0.85621776    -0.39600
O296        O  0.39851191  0.00685190  0.80765633    -0.39700
C297        C  0.11606791  0.47208793  0.82054630    -0.11900
C298        C  0.13586741  0.50567158  0.84772948     0.05100
C299        C  0.12764335  0.03780666  0.85021029    -0.07200
C300        C  0.09614129  0.03616874  0.82548307    -0.08000
C301        C  0.07185690  0.50084396  0.79694953    -0.02500
C302        C  0.08485449  0.46966721  0.79453973     0.04300
N303        N  0.06730180  0.43568855  0.76617081     0.66800
H304        H  0.12497876  0.44747257  0.81950530     0.15700
H305        H  0.08774363  0.06113480  0.82756830     0.15400
N306        N  0.14726124  0.07227457  0.87775319     0.74500
O307        O  0.09109867  0.42348139  0.75068016    -0.38900
O308        O  0.02781888  0.41668319  0.75735085    -0.38900
O309        O  0.17556775  0.10959574  0.86666720    -0.39600
O310        O  0.13104268  0.06733808  0.91106108    -0.39700
C311        C  0.39414724  0.35734926  0.66775295    -0.11900
C312        C  0.37289872  0.37284570  0.64450948     0.05100
C313        C  0.37854815  0.41398041  0.65270694    -0.07200
C314        C  0.40618832  0.43898011  0.68271242    -0.08000
C315        C  0.42806369  0.42371840  0.70523931    -0.02500
C316        C  0.42142625  0.38217665  0.69793950     0.04300
N317        N  0.44319988  0.36504525  0.71954018     0.66800
H318        H  0.38964076  0.32555101  0.66258104     0.15700
H319        H  0.41169528  0.47120873  0.68770043     0.15400
N320        N  0.35832455  0.43187681  0.62979855     0.74500
O321        O  0.42516543  0.34326511  0.74950641    -0.38900
O322        O  0.47033571  0.35863160  0.70224738    -0.38900
O323        O  0.32569197  0.43211514  0.64285926    -0.39600
O324        O  0.37790581  0.45490005  0.60081363    -0.39700
C325        C  0.46829526  0.08245836  0.70678030    -0.11900
C326        C  0.50312134  0.07513943  0.70635500     0.05100
C327        C  0.03516158  0.09621066  0.67789798    -0.07200
C328        C  0.03173680  0.12273060  0.65060705    -0.08000
C329        C  0.49773609  0.13019339  0.65059695    -0.02500
C330        C  0.46524531  0.10962890  0.67912637     0.04300
N331        N  0.42946762  0.11644940  0.68090767     0.66800
H332        H  0.44283615  0.06616878  0.72799202     0.15700
H333        H  0.05863003  0.14070201  0.63106220     0.15400
N334        N  0.07444115  0.09558399  0.67920900     0.74500
O335        O  0.39387627  0.08910572  0.66578009    -0.38900
O336        O  0.43084730  0.14446815  0.70385598    -0.38900
O337        O  0.07860354  0.07041692  0.65652402    -0.39600
O338        O  0.10799407  0.12941900  0.69054477    -0.39700
C339        C  0.05961731  0.96944413  0.67892116    -0.11900
C340        C  0.07615124  0.00155717  0.70768246     0.05100
C341        C  0.11465156  0.52556545  0.70803597    -0.07200
C342        C  0.14047170  0.52345594  0.67894135    -0.08000
C343        C  0.13062447  0.99899176  0.65039405    -0.02500
C344        C  0.08633973  0.96736469  0.65092664     0.04300
N345        N  0.06758992  0.93370805  0.62255718     0.66800
H346        H  0.02536787  0.94566169  0.67804942     0.15700
H347        H  0.17513383  0.54532978  0.68038666     0.15400
N348        N  0.13600897  0.55616045  0.73854898     0.74500
O349        O  0.06415125  0.89765484  0.62981430    -0.38900
O350        O  0.04643125  0.93670996  0.59475980    -0.38900
O351        O  0.16045399  0.55040468  0.76088046    -0.39600
O352        O  0.14140923  0.09706826  0.73845422    -0.39700
C353        C  0.99782319  0.49837938  0.79054410     0.45800
H354        H  0.99814436  0.49903558  0.82268477    -0.03200
C355        C  0.00391350  0.00167972  0.71445839     0.45800
H356        H  0.00386941  0.00091749  0.68227560    -0.03200
C357        C  0.46542185  0.96285149  0.77326639    -0.16900
C358        C  0.50101196  0.53283932  0.77187096    -0.16700
C359        C  0.04350543  0.00476293  0.77244560    -0.17100
C360        C  0.46495821  0.96278975  0.73350832    -0.17000
C361        C  0.99560664  0.53653962  0.73334019    -0.16600
C362        C  0.03754044  0.50042160  0.73235640    -0.16900
Zn363      Zn  0.34197183  0.72220622  0.01966112     1.49700
Zn364      Zn  0.33651732  0.67002573  0.94176714     1.49400
Zn365      Zn  0.38340222  0.66188373  0.01764510     1.49100
Zn366      Zn  0.28262538  0.62224533  0.02079437     1.49500
O367        O  0.33608231  0.66904389  0.99928538    -1.83800
O368        O  0.33432323  0.75544457  0.97734762    -0.74400
O369        O  0.39389600  0.67624216  0.92060372    -0.74200
O370        O  0.42456471  0.71283364  0.04808903    -0.73800
O371        O  0.32862572  0.72036194  0.92242419    -0.74400
O372        O  0.39876933  0.75759882  0.04679842    -0.74000
O373        O  0.42070567  0.66365631  0.97390206    -0.74600
O374        O  0.29317130  0.58330247  0.05418757    -0.74000
O375        O  0.28520569  0.61240412  0.92298641    -0.74800
O376        O  0.36366982  0.60813281  0.05008101    -0.74200
O377        O  0.24848672  0.58331634  0.97758763    -0.74600
O378        O  0.24742550  0.64235551  0.05117406    -0.74500
O379        O  0.29449452  0.71277302  0.05530691    -0.74300
C380        C  0.32788891  0.75081991  0.94103133     0.77500
C381        C  0.42311608  0.67204740  0.93791838     0.78000
C382        C  0.42776454  0.74881203  0.05595775     0.76900
C383        C  0.32607730  0.58024752  0.06184091     0.77300
C384        C  0.25350816  0.58180750  0.94130979     0.78400
C385        C  0.25788110  0.68008955  0.06289784     0.77500
C386        C  0.33390465  0.83480798  0.87432612     0.80600
N387        N  0.34017646  0.80348890  0.88980726    -0.77800
C388        C  0.31777495  0.78106643  0.92141995     0.83000
N389        N  0.28946993  0.79067027  0.93809862    -0.77700
C390        C  0.28158936  0.82063108  0.92222913     0.83100
N391        N  0.30415971  0.84302119  0.89042941    -0.79400
Zn392      Zn  0.22267254  0.84370709  0.02159971     1.49700
Zn393      Zn  0.16091417  0.88334825  0.01959412     1.49400
Zn394      Zn  0.16926303  0.83586973  0.94379738     1.49100
Zn395      Zn  0.12132097  0.78242324  0.02238211     1.49500
O396        O  0.16856371  0.83614957  0.00138043    -1.83800
O397        O  0.25595544  0.90000727  0.05156464    -0.74400
O398        O  0.16643249  0.92192987  0.97571348    -0.74200
O399        O  0.21937098  0.82845958  0.92444408    -0.73800
O400        O  0.20964526  0.92384507  0.05276630    -0.74400
O401        O  0.25776067  0.83928522  0.97837968    -0.74000
O402        O  0.17752311  0.89358928  0.92269363    -0.74600
O403        O  0.08215704  0.74805270  0.97850201    -0.74000
O404        O  0.10556312  0.86335541  0.04956668    -0.74800
O405        O  0.11157822  0.78487237  0.92406867    -0.74200
O406        O  0.08206002  0.79320565  0.05579881    -0.74600
O407        O  0.14239863  0.74752796  0.05264707    -0.74500
O408        O  0.21312973  0.79416012  0.05516314    -0.74300
C409        C  0.24577696  0.92788922  0.06148381     0.77500
C410        C  0.17524908  0.92390940  0.93988389     0.78000
C411        C  0.25173110  0.83090506  0.94230046     0.76900
C412        C  0.08076272  0.75306616  0.94211804     0.77300
C413        C  0.07819982  0.82595218  0.06217981     0.78400
C414        C  0.18044577  0.75758838  0.06321117     0.77500
C415        C  0.16867621  0.66783736  0.12568838     0.80600
N416        N  0.16214882  0.69912175  0.11041127    -0.77800
C417        C  0.18817303  0.72537828  0.08193099     0.83000
N418        N  0.22035053  0.71986719  0.06830057    -0.77700
C419        C  0.22599285  0.68769205  0.08197791     0.83100
N420        N  0.19997210  0.66145884  0.11054517    -0.79400
C421        C  0.16929836  0.00388780  0.87591208     0.80600
N422        N  0.19834756  0.54257348  0.89162649    -0.77800
C423        C  0.22250946  0.54196735  0.92143489     0.83000
N424        N  0.21736917  0.00225913  0.93559115    -0.77700
C425        C  0.18631575  0.96438846  0.91981835     0.83100
N426        N  0.16181935  0.96521142  0.89017461    -0.79400
C427        C  0.50335042  0.84037877  0.11683370     0.80600
N428        N  0.03877515  0.84373565  0.11031922    -0.77800
C429        C  0.03851915  0.81875857  0.08070970     0.83000
N430        N  0.50553795  0.78795795  0.06155779    -0.77700
C431        C  0.46730213  0.78171555  0.07402856     0.83100
N432        N  0.46635030  0.80781905  0.10139876    -0.79400
C433        C  0.50178947  0.66207632  0.87435619     0.80600
N434        N  0.46351628  0.65583360  0.88877466    -0.77800
C435        C  0.46332861  0.68106657  0.91813238     0.83000
N436        N  0.50148902  0.71172555  0.93367611    -0.77700
C437        C  0.04050672  0.72255203  0.92193469     0.83100
N438        N  0.04022774  0.69899571  0.89102699    -0.79400
C439        C  0.34150317  0.50274048  0.12043295     0.80600
N440        N  0.34718986  0.54088212  0.10679734    -0.77800
C441        C  0.31893653  0.54072176  0.08058599     0.83000
N442        N  0.28218737  0.00570453  0.06905418    -0.77700
C443        C  0.27745070  0.96764272  0.08075720     0.83100
N444        N  0.30542486  0.96751845  0.10668511    -0.79400
Zn445      Zn  0.33683851  0.61638607  0.52611355     1.49700
Zn446      Zn  0.27931433  0.66010544  0.52788596     1.49400
Zn447      Zn  0.38035430  0.71839465  0.52883695     1.49100
Zn448      Zn  0.33302802  0.66640473  0.44982231     1.49500
O449        O  0.33234424  0.66523213  0.50751820    -1.83800
O450        O  0.28545591  0.57618995  0.55751069    -0.74400
O451        O  0.29036846  0.71071896  0.56044677    -0.74200
O452        O  0.41862163  0.70641588  0.56168235    -0.73800
O453        O  0.24259747  0.60409467  0.55708232    -0.74400
O454        O  0.39185625  0.63545003  0.55683483    -0.74000
O455        O  0.36145999  0.75514934  0.55816236    -0.74600
O456        O  0.39060393  0.71836227  0.43085977    -0.74000
O457        O  0.24570821  0.66537491  0.48447525    -0.74800
O458        O  0.42020596  0.75297157  0.48615409    -0.74200
O459        O  0.28228388  0.67285783  0.43014224    -0.74600
O460        O  0.32723557  0.60987415  0.42797858    -0.74500
O461        O  0.33283282  0.57859009  0.48158921    -0.74300
C462        C  0.25003883  0.57405688  0.56590983     0.77500
C463        C  0.32387005  0.74690939  0.56795806     0.78000
C464        C  0.42091872  0.67287109  0.56830754     0.76900
C465        C  0.42162197  0.74930716  0.44966687     0.77300
C466        C  0.25084695  0.67203452  0.44821635     0.78400
C467        C  0.32766879  0.57853316  0.44512036     0.77500
C468        C  0.34213533  0.84434110  0.62180255     0.80600
N469        N  0.34677180  0.81082463  0.60953741    -0.77800
C470        C  0.31777887  0.78102355  0.58452221     0.83000
N471        N  0.28443535  0.78505500  0.57148280    -0.77700
C472        C  0.28047490  0.81911067  0.58237915     0.83100
N473        N  0.30941588  0.84883697  0.60739318    -0.79400
Zn474      Zn  0.22012871  0.88094156  0.52188554     1.49700
Zn475      Zn  0.15945956  0.77871888  0.52610862     1.49400
Zn476      Zn  0.11818436  0.83720756  0.52389788     1.49100
Zn477      Zn  0.16550880  0.83041185  0.44652104     1.49500
O478        O  0.16581520  0.83178588  0.50409339    -1.83800
O479        O  0.25632482  0.86190244  0.55153799    -0.74400
O480        O  0.10350853  0.74278450  0.55684639    -0.74200
O481        O  0.13859002  0.89301293  0.55304226    -0.73800
O482        O  0.21018960  0.79134913  0.55882634    -0.74400
O483        O  0.20974287  0.92033138  0.55466707    -0.74000
O484        O  0.07815070  0.78767726  0.55742083    -0.74600
O485        O  0.10779588  0.82195879  0.42642109    -0.74000
O486        O  0.16495358  0.74410302  0.48361649    -0.74800
O487        O  0.07952978  0.83174376  0.48019191    -0.74200
O488        O  0.17266478  0.77991323  0.42858997    -0.74600
O489        O  0.21536592  0.88758203  0.42400665    -0.74500
O490        O  0.25316523  0.91966855  0.47725485    -0.74300
C491        C  0.24704190  0.82482444  0.56419447     0.77500
C492        C  0.07481531  0.75187657  0.56652673     0.78000
C493        C  0.17646823  0.92250173  0.56282740     0.76900
C494        C  0.07762533  0.82386246  0.44412253     0.77300
C495        C  0.17195614  0.74889280  0.44735291     0.78400
C496        C  0.24725640  0.91965064  0.44089809     0.77500
C497        C  0.15184955  0.49415162  0.61848267     0.80600
N498        N  0.18602009  0.53270241  0.60698211    -0.77800
C499        C  0.21565025  0.53360919  0.58226601     0.83000
N500        N  0.21098920  0.49606068  0.56900051    -0.77700
C501        C  0.18295533  0.96224965  0.58043557     0.83100
N502        N  0.15479310  0.96182265  0.60660580    -0.79400
C503        C  0.49819932  0.65505312  0.62466512     0.80600
N504        N  0.46032935  0.65039124  0.61155755    -0.77800
C505        C  0.46070431  0.67895991  0.58569272     0.83000
N506        N  0.99679561  0.71430583  0.57159115    -0.77700
C507        C  0.03445725  0.71932394  0.58501915     0.83100
N508        N  0.03356797  0.69204674  0.61260679    -0.79400
C509        C  0.50056342  0.83739020  0.38586821     0.80600
N510        N  0.03775010  0.83844025  0.39408762    -0.77800
C511        C  0.03762701  0.81392554  0.42405265     0.83000
N512        N  0.49995549  0.78809127  0.44533080    -0.77700
C513        C  0.46191941  0.78066128  0.43026349     0.83100
N514        N  0.46223049  0.80543063  0.40048999    -0.79400
C515        C  0.16904102  0.66754478  0.37935480     0.80600
N516        N  0.19929424  0.66016897  0.39572381    -0.77800
C517        C  0.22066358  0.68176765  0.42818394     0.83000
N518        N  0.21110683  0.71017621  0.44466944    -0.77700
C519        C  0.18219346  0.71890299  0.42792479     0.83100
N520        N  0.16098444  0.69737555  0.39537913    -0.79400
C521        C  0.32835231  0.99747193  0.37034605     0.80600
N522        N  0.34247208  0.54083623  0.39252770    -0.77800
C523        C  0.31882830  0.53924513  0.42377236     0.83000
N524        N  0.28539545  0.99799961  0.43483934    -0.77700
C525        C  0.27667767  0.95963760  0.41950709     0.83100
N526        N  0.29835809  0.95944134  0.38735782    -0.79400
C527        C  0.99924466  0.99115523  0.21448141     0.45800
H528        H  0.99914796  0.98703154  0.18271938    -0.03200
C529        C  0.00261444  0.50282295  0.28876509     0.45800
H530        H  0.00121438  0.50351287  0.32069976    -0.03200
C531        C  0.46237900  0.50105571  0.23010399    -0.16900
C532        C  0.00252239  0.95627267  0.23743531    -0.16700
C533        C  0.04521337  0.54446200  0.23347271    -0.17100
C534        C  0.45234740  0.99087024  0.26702978    -0.17000
C535        C  0.99875380  0.95909824  0.27680487    -0.16600
C536        C  0.04314778  0.54292541  0.27299807    -0.16900
C537        C  0.35299678  0.47059930  0.31892444    -0.11900
C538        C  0.35736817  0.99709418  0.33936609     0.05100
C539        C  0.39304062  0.03538428  0.32413971    -0.07200
C540        C  0.42334982  0.03285665  0.30031656    -0.08000
C541        C  0.41815010  0.99286278  0.28964207    -0.02500
C542        C  0.38203808  0.46869379  0.29261086     0.04300
N543        N  0.36609613  0.43253306  0.26639441     0.66800
H544        H  0.31977962  0.44419661  0.31960447     0.15700
H545        H  0.45129014  0.06243793  0.29034260     0.15400
N546        N  0.39961565  0.07719243  0.33286445     0.74500
O547        O  0.37691350  0.89025936  0.32155456    -0.38900
O548        O  0.32755925  0.41427173  0.25437016    -0.38900
O549        O  0.42955670  0.10186456  0.35573339    -0.39600
O550        O  0.42381868  0.60976463  0.35389008    -0.39700
C551        C  0.08720273  0.61874920  0.29709462    -0.11900
C552        C  0.07686928  0.57554213  0.29882969     0.05100
C553        C  0.09831432  0.56352232  0.32576802    -0.07200
C554        C  0.12973599  0.59457992  0.35017017    -0.08000
C555        C  0.13976220  0.63775443  0.34914786    -0.02500
C556        C  0.11815761  0.64982598  0.32217695     0.04300
N557        N  0.12734078  0.69339488  0.31975203     0.66800
H558        H  0.07063786  0.62823659  0.27665296     0.15700
H559        H  0.14519654  0.58428801  0.37108344     0.15400
N560        N  0.08865338  0.51985195  0.32884090     0.74500
O561        O  0.15700022  0.71969838  0.29762872    -0.38900
O562        O  0.10098451  0.70314796  0.33370230    -0.38900
O563        O  0.11120555  0.50827759  0.31016869    -0.39600
O564        O  0.06616215  0.49710085  0.35692324    -0.39700
C565        C  0.46903192  0.84803070  0.32671775    -0.11900
C566        C  0.50051887  0.86615079  0.35547664     0.05100
C567        C  0.03359082  0.88795480  0.32634104    -0.07200
C568        C  0.03339315  0.92032442  0.30411896    -0.08000
C569        C  0.99895485  0.92796314  0.30517224    -0.02500
C570        C  0.46569507  0.87336173  0.29784668     0.04300
N571        N  0.43438397  0.85066210  0.26827723     0.66800
H572        H  0.44684410  0.81335543  0.32626460     0.15700
H573        H  0.06049033  0.93994029  0.28584063     0.15400
N574        N  0.06784743  0.87920872  0.32121009     0.74500
O575        O  0.93680435  0.94467274  0.35644256    -0.38900
O576        O  0.43754071  0.82237884  0.24922419    -0.38900
O577        O  0.06372068  0.85147699  0.29647398    -0.39600
O578        O  0.55747787  0.94617377  0.41395817    -0.39700
C579        C  0.37381977  0.96776517  0.14585728    -0.11900
C580        C  0.37131463  0.50233337  0.14959102     0.05100
C581        C  0.38785584  0.53221875  0.18049113    -0.07200
C582        C  0.41656029  0.53066879  0.20709778    -0.08000
C583        C  0.42937380  0.49987090  0.20329046    -0.02500
C584        C  0.40077219  0.96236114  0.17095065     0.04300
N585        N  0.40491483  0.92555840  0.16484119     0.66800
H586        H  0.35737859  0.94366704  0.12340940     0.15700
H587        H  0.42941915  0.55408428  0.23044187     0.15400
N588        N  0.37500425  0.56356383  0.18573610     0.74500
O589        O  0.37265634  0.88895606  0.17257229    -0.38900
O590        O  0.43040601  0.92799085  0.13855955    -0.40500
O591        O  0.33645403  0.55160821  0.19450769    -0.39600
O592        O  0.40192145  0.60318758  0.18064840    -0.39700
C593        C  0.53851427  0.89730424  0.16796639    -0.11900
C594        C  0.50067932  0.86669121  0.14857367     0.05100
C595        C  0.96397905  0.85429422  0.18024384    -0.07200
C596        C  0.96639295  0.88309615  0.20892180    -0.08000
C597        C  0.00522707  0.92138131  0.21680678    -0.02500
C598        C  0.53671212  0.92220832  0.19841195     0.04300
N599        N  0.57507926  0.94983857  0.21985769     0.66800
H600        H  0.56953823  0.90142791  0.16007906     0.15700
H601        H  0.93717945  0.87662616  0.22375546     0.15400
N602        N  0.92323378  0.81602355  0.17322923     0.74500
O603        O  0.10843763  0.99127324  0.18671663    -0.38900
O604        O  0.57941744  0.93773210  0.25299701    -0.38900
O605        O  0.91063852  0.78398590  0.19549335    -0.39600
O606        O  0.40691623  0.83724000  0.11403609    -0.39700
C607        C  0.12128441  0.58862449  0.21027404    -0.11900
C608        C  0.07887737  0.58063616  0.21036416     0.05100
C609        C  0.06753826  0.60381379  0.18484257    -0.07200
C610        C  0.09774513  0.63279739  0.15853053    -0.08000
C611        C  0.13948671  0.63907468  0.15648844    -0.02500
C612        C  0.15149611  0.61711392  0.18324488     0.04300
N613        N  0.19385308  0.62287880  0.18319019     0.66800
H614        H  0.13043892  0.57130646  0.23012966     0.15700
H615        H  0.08783577  0.64962122  0.13880569     0.15400
N616        N  0.02535035  0.59838238  0.18517771     0.74500
O617        O  0.22249070  0.65072620  0.20531257    -0.38900
O618        O  0.19987531  0.59462352  0.16755441    -0.38900
O619        O  0.01582823  0.61650881  0.21144914    -0.39600
O620        O  0.00257302  0.58553350  0.15482704    -0.39700
C621        C  0.38781024  0.91630047  0.79247068    -0.11900
C622        C  0.43137203  0.92860006  0.79812779     0.05100
C623        C  0.44174974  0.90834874  0.82788866    -0.07200
C624        C  0.40898958  0.87678594  0.85087036    -0.08000
C625        C  0.36571658  0.86530200  0.84600205    -0.02500
C626        C  0.35512398  0.88535996  0.81639104     0.04300
N627        N  0.31139156  0.87409312  0.80971915     0.66800
H628        H  0.37917159  0.93146798  0.76987930     0.15700
H629        H  0.41792672  0.86204259  0.87365806     0.15400
N630        N  0.48492210  0.91757963  0.83440713     0.74500
O631        O  0.29839680  0.89857796  0.82204366    -0.38900
O632        O  0.28877820  0.84493576  0.78541445    -0.38900
O633        O  0.49337672  0.88811268  0.82779827    -0.39600
O634        O  0.50826756  0.94681993  0.85836462    -0.39700
C635        C  0.03593923  0.60936860  0.80312586    -0.11900
C636        C  0.50031161  0.56654230  0.79628284     0.05100
C637        C  0.46248903  0.55911979  0.81523036    -0.07200
C638        C  0.46345524  0.59116307  0.83915982    -0.08000
C639        C  0.50192382  0.63078963  0.84561272    -0.02500
C640        C  0.03872952  0.64209635  0.82736276     0.04300
N641        N  0.08025466  0.67963213  0.83349582     0.66800
H642        H  0.06503157  0.61332814  0.78984477     0.15700
H643        H  0.43389789  0.58422707  0.85361376     0.15400
N644        N  0.42289053  0.51888164  0.81119235     0.74500
O645        O  0.10467714  0.67907644  0.85951988    -0.38900
O646        O  0.09604461  0.70846594  0.80771015    -0.38900
O647        O  0.40947444  0.49293158  0.83934745    -0.39600
O648        O  0.39666557  0.51472014  0.78484467    -0.39700
C649        C  0.11852754  0.97240895  0.82049864    -0.11900
C650        C  0.13868738  0.00526276  0.84820445     0.05100
C651        C  0.12442907  0.53796941  0.84837728    -0.07200
C652        C  0.09182134  0.53446914  0.82395742    -0.08000
C653        C  0.07598900  0.00341171  0.79779366    -0.02500
C654        C  0.08746536  0.97108927  0.79501085     0.04300
N655        N  0.06751923  0.93630188  0.76748612     0.66800
H656        H  0.12672175  0.94729468  0.81895194     0.15700
H657        H  0.08282566  0.55902087  0.82537045     0.15400
N658        N  0.14552258  0.57466847  0.87346844     0.74500
O659        O  0.08853286  0.92011671  0.75339134    -0.38900
O660        O  0.02804868  0.91947800  0.75922074    -0.38900
O661        O  0.17732763  0.60921557  0.86092165    -0.39600
O662        O  0.12709850  0.57557556  0.90421025    -0.39700
C663        C  0.39247396  0.86013152  0.67663987    -0.11900
C664        C  0.37170667  0.87456696  0.65161190     0.05100
C665        C  0.37941958  0.91703548  0.65610149    -0.07200
C666        C  0.40862938  0.94427778  0.68424441    -0.08000
C667        C  0.43015662  0.93006099  0.70853689    -0.02500
C668        C  0.42143169  0.88721264  0.70492134     0.04300
N669        N  0.44313634  0.87092540  0.72777543     0.66800
H670        H  0.38647849  0.82744434  0.67420498     0.15700
H671        H  0.41537917  0.97726017  0.68653509     0.15400
N672        N  0.35955908  0.93380944  0.63131071     0.74500
O673        O  0.42574676  0.85164172  0.75893089    -0.38900
O674        O  0.46847834  0.86167276  0.71084505    -0.38900
O675        O  0.32781932  0.93628630  0.64349265    -0.39600
O676        O  0.37855176  0.95348476  0.60074339    -0.39700
C677        C  0.46567800  0.57110773  0.70523911    -0.11900
C678        C  0.50272221  0.56773699  0.70756495     0.05100
C679        C  0.03256015  0.59785163  0.68651877    -0.07200
C680        C  0.03138743  0.62686521  0.66068207    -0.08000
C681        C  0.49838100  0.62478055  0.65379596    -0.02500
C682        C  0.46307212  0.59920347  0.67864564     0.04300
N683        N  0.42444912  0.60127688  0.67751740     0.66800
H684        H  0.43810863  0.55088088  0.72327280     0.15700
H685        H  0.05994184  0.64689923  0.64350350     0.15400
N686        N  0.07237173  0.59902135  0.69144015     0.74500
O687        O  0.39208493  0.57288708  0.65896573    -0.38900
O688        O  0.41972318  0.62523240  0.70128310    -0.38900
O689        O  0.08315346  0.58071494  0.66638765    -0.39600
O690        O  0.10151293  0.63014929  0.71061319    -0.39700
C691        C  0.05160498  0.46728672  0.67594865    -0.11900
C692        C  0.06909408  0.49797660  0.70602541     0.05100
C693        C  0.12126178  0.03107922  0.70918484    -0.07200
C694        C  0.14774010  0.03003795  0.68001061    -0.08000
C695        C  0.12259105  0.49367644  0.64849009    -0.02500
C696        C  0.07778242  0.46448194  0.64769783     0.04300
N697        N  0.05807496  0.43295697  0.61763653     0.66800
H698        H  0.01705376  0.44516944  0.67418979     0.15700
H699        H  0.18207235  0.05348174  0.68073177     0.15400
N700        N  0.14114297  0.06190069  0.73980523     0.74500
O701        O  0.04957023  0.39475700  0.62359615    -0.38900
O702        O  0.04128650  0.44075143  0.58896941    -0.38900
O703        O  0.16796201  0.05932492  0.76161008    -0.39600
O704        O  0.14391536  0.59425982  0.73396750    -0.39700
C705        C  0.50429813  0.00380215  0.79026670     0.45800
H706        H  0.50476438  0.00482927  0.82235099    -0.03200
C707        C  0.50200629  0.49499407  0.71407373     0.45800
H708        H  0.50153507  0.49583445  0.68189978    -0.03200
C709        C  0.95916321  0.45744652  0.77315691    -0.16900
C710        C  0.00142849  0.04155009  0.77010699    -0.16700
C711        C  0.54118408  0.49406070  0.77107385    -0.17100
C712        C  0.95851884  0.45762456  0.73338390    -0.17000
C713        C  0.50309142  0.04204362  0.73232113    -0.16600
C714        C  0.54383164  0.00487184  0.73245712    -0.16900
Zn715      Zn  0.83726728  0.22038676  0.02351851     1.49700
Zn716      Zn  0.83510846  0.17059361  0.94377087     1.49400
Zn717      Zn  0.88336496  0.16480047  0.01907822     1.49100
Zn718      Zn  0.78168702  0.11973663  0.02116024     1.49500
O719        O  0.83444755  0.16909767  0.00130455    -1.83800
O720        O  0.83118495  0.25428607  0.98084784    -0.74400
O721        O  0.89232341  0.17897561  0.92162792    -0.74200
O722        O  0.92128474  0.21496767  0.05216213    -0.73800
O723        O  0.82614210  0.21989872  0.92548866    -0.74400
O724        O  0.89237189  0.25694542  0.05440675    -0.74000
O725        O  0.92222702  0.17055038  0.97482672    -0.74600
O726        O  0.79446228  0.08262576  0.05447022    -0.74000
O727        O  0.78619923  0.11280816  0.92338693    -0.74800
O728        O  0.86529675  0.10973346  0.04866171    -0.74200
O729        O  0.75065041  0.08002300  0.97738382    -0.74600
O730        O  0.74212094  0.13562450  0.04989998    -0.74500
O731        O  0.78573474  0.20657230  0.05587732    -0.74300
C732        C  0.82523386  0.25001576  0.94441382     0.77500
C733        C  0.92313002  0.17745524  0.93860279     0.78000
C734        C  0.92250905  0.24943696  0.06265857     0.76900
C735        C  0.82825253  0.08063757  0.06052085     0.77300
C736        C  0.75608585  0.08016442  0.94104433     0.78400
C737        C  0.74959551  0.17240886  0.06174308     0.77500
C738        C  0.82969498  0.33263480  0.87715245     0.80600
N739        N  0.83646139  0.30169776  0.89276773    -0.77800
C740        C  0.81499371  0.27997222  0.92492081     0.83000
N741        N  0.78679703  0.28939848  0.94177238    -0.77700
C742        C  0.77828843  0.31874445  0.92574813     0.83100
N743        N  0.80006276  0.34077586  0.89355630    -0.79400
Zn744      Zn  0.71918864  0.33815886  0.02620483     1.49700
Zn745      Zn  0.66212594  0.38226231  0.02446782     1.49400
Zn746      Zn  0.66680475  0.33380140  0.94767987     1.49100
Zn747      Zn  0.61768624  0.28029104  0.02531616     1.49500
O748        O  0.66650099  0.33358281  0.00542504    -1.83800
O749        O  0.75615577  0.39419664  0.05599042    -0.74400
O750        O  0.66734061  0.42080494  0.98050090    -0.74200
O751        O  0.71721667  0.32799428  0.92785681    -0.73800
O752        O  0.71320822  0.42197282  0.05638304    -0.74400
O753        O  0.75296906  0.33372775  0.98247553    -0.74000
O754        O  0.67363794  0.39053169  0.92655669    -0.74600
O755        O  0.57913513  0.24673910  0.98114609    -0.74000
O756        O  0.60706539  0.36367298  0.05458740    -0.74800
O757        O  0.61013104  0.28286527  0.92692543    -0.74200
O758        O  0.57888891  0.29239872  0.05743065    -0.74600
O759        O  0.63565388  0.24294408  0.05521658    -0.74500
O760        O  0.70691720  0.28654710  0.05828712    -0.74300
C761        C  0.74866402  0.42420980  0.06488454     0.77500
C762        C  0.67337939  0.42165317  0.94417061     0.78000
C763        C  0.74835883  0.32834180  0.94599699     0.76900
C764        C  0.57871249  0.25146746  0.94467087     0.77300
C765        C  0.57730460  0.32618967  0.06498373     0.78400
C766        C  0.67297645  0.25055832  0.06548006     0.77500
C767        C  0.65205164  0.15091692  0.11714930     0.80600
N768        N  0.64830291  0.18526494  0.10583967    -0.77800
C769        C  0.67825976  0.21579963  0.08195187     0.83000
N770        N  0.71173981  0.21178454  0.06940909    -0.77700
C771        C  0.71506647  0.17710996  0.07938402     0.83100
N772        N  0.68499786  0.14646107  0.10307569    -0.79400
C773        C  0.66917639  0.49983883  0.87622151     0.80600
N774        N  0.70309011  0.04175636  0.89009146    -0.77800
C775        C  0.72682986  0.04062906  0.91991099     0.83000
N776        N  0.71372378  0.49990151  0.93962289    -0.77700
C777        C  0.68375435  0.46167335  0.92370043     0.83100
N778        N  0.66114311  0.46159041  0.89204997    -0.79400
C779        C  0.00166807  0.34260107  0.12178622     0.80600
N780        N  0.53866615  0.34824806  0.10961218    -0.77800
C781        C  0.53780563  0.32055124  0.08252531     0.83000
N782        N  0.99996727  0.28761236  0.06726151    -0.77700
C783        C  0.96242892  0.28264521  0.08071807     0.83100
N784        N  0.96313721  0.31029006  0.10786630    -0.79400
C785        C  0.00016850  0.17064242  0.87054592     0.80600
N786        N  0.96226315  0.16353896  0.88657700    -0.77800
C787        C  0.96280154  0.18714522  0.91762348     0.83000
N788        N  0.00121896  0.21701798  0.93305845    -0.77700
C789        C  0.53880421  0.22135324  0.92403489     0.83100
N790        N  0.53877145  0.19854398  0.89263626    -0.79400
C791        C  0.84758048  0.00270501  0.11383827     0.80600
N792        N  0.85205182  0.04090375  0.10192440    -0.77800
C793        C  0.82269300  0.04088494  0.07717494     0.83000
N794        N  0.78664408  0.50227488  0.06926634    -0.77700
C795        C  0.78281190  0.46472874  0.08167990     0.83100
N796        N  0.81280768  0.46578772  0.10619616    -0.79400
Zn797      Zn  0.83628313  0.11826797  0.51663505     1.49700
Zn798      Zn  0.77897944  0.16188843  0.51732439     1.49400
Zn799      Zn  0.88078288  0.21994788  0.51650948     1.49100
Zn800      Zn  0.83073963  0.16513572  0.43870142     1.49500
O801        O  0.83157917  0.16642781  0.49656840    -1.83800
O802        O  0.78637472  0.07993735  0.54938059    -0.74400
O803        O  0.79249304  0.21438165  0.54851719    -0.74200
O804        O  0.91772126  0.20783910  0.55111767    -0.73800
O805        O  0.74341839  0.10759096  0.54985599    -0.74400
O806        O  0.89039963  0.13678768  0.54792293    -0.74000
O807        O  0.86365623  0.25849966  0.54563919    -0.74600
O808        O  0.88898920  0.21569751  0.41828717    -0.74000
O809        O  0.74345468  0.16399356  0.47336589    -0.74800
O810        O  0.92094567  0.25150206  0.47262452    -0.74200
O811        O  0.77880570  0.17011600  0.41850725    -0.74600
O812        O  0.82400196  0.10740805  0.41906319    -0.74500
O813        O  0.83119878  0.07878111  0.47374564    -0.74300
C814        C  0.75159210  0.07817578  0.55927198     0.77500
C815        C  0.82629664  0.25039747  0.55613430     0.78000
C816        C  0.91925885  0.17419983  0.55934015     0.76900
C817        C  0.92138261  0.24629438  0.43620407     0.77300
C818        C  0.74720844  0.16885934  0.43677094     0.78400
C819        C  0.82488628  0.07692415  0.43739353     0.77500
C820        C  0.84093934  0.34377138  0.61562555     0.80600
N821        N  0.84752359  0.31211555  0.60109932    -0.77800
C822        C  0.82026064  0.28412648  0.57383934     0.83000
N823        N  0.78680051  0.28794999  0.56113276    -0.77700
C824        C  0.78090703  0.32002965  0.57416879     0.83100
N825        N  0.80803095  0.34807690  0.60124923    -0.79400
Zn826      Zn  0.71869886  0.37987310  0.51481979     1.49700
Zn827      Zn  0.66017651  0.27763748  0.51622159     1.49400
Zn828      Zn  0.61698323  0.33405352  0.51353958     1.49100
Zn829      Zn  0.66806846  0.33148667  0.43678113     1.49500
O830        O  0.66600433  0.33063863  0.49458590    -1.83800
O831        O  0.75495024  0.36243941  0.54591178    -0.74400
O832        O  0.60519495  0.24112428  0.54810912    -0.74200
O833        O  0.63448908  0.38909598  0.54285231    -0.73800
O834        O  0.71162972  0.29100388  0.54810495    -0.74400
O835        O  0.70565256  0.41754150  0.54678608    -0.74000
O836        O  0.57786921  0.28426005  0.54692173    -0.74600
O837        O  0.61082612  0.32397266  0.41516341    -0.74000
O838        O  0.66417421  0.24293930  0.47312198    -0.74800
O839        O  0.57898379  0.32749344  0.46924942    -0.74200
O840        O  0.67377735  0.28001584  0.41845872    -0.74600
O841        O  0.72025364  0.38948655  0.41651556    -0.74500
O842        O  0.75378099  0.41955509  0.47196551    -0.74300
C843        C  0.74707454  0.32512145  0.55620250     0.77500
C844        C  0.57575751  0.24933575  0.55718317     0.78000
C845        C  0.67169786  0.41879070  0.55389001     0.76900
C846        C  0.57885935  0.32251241  0.43282288     0.77300
C847        C  0.67128569  0.24793188  0.43688607     0.78400
C848        C  0.75084513  0.42091581  0.43536058     0.77500
C849        C  0.65887484  0.00025129  0.61905456     0.80600
N850        N  0.69076744  0.03848590  0.60441623    -0.77800
C851        C  0.71910676  0.03865245  0.57847590     0.83000
N852        N  0.71558755  0.00081959  0.56747230    -0.77700
C853        C  0.67694955  0.45763086  0.57223885     0.83100
N854        N  0.64796149  0.45601221  0.59815653    -0.79400
C855        C  0.99466099  0.15617005  0.61857527     0.80600
N856        N  0.95703528  0.15146976  0.60460833    -0.77800
C857        C  0.95817878  0.18015385  0.57832415     0.83000
N858        N  0.49814388  0.21217857  0.56389686    -0.77700
C859        C  0.53591643  0.21687990  0.57641473     0.83100
N860        N  0.53550559  0.19018360  0.60437697    -0.79400
C861        C  0.00084955  0.33012130  0.36930785     0.80600
N862        N  0.53894075  0.33643749  0.38216545    -0.77800
C863        C  0.53884704  0.31219919  0.41239105     0.83000
N864        N  0.99989916  0.28377647  0.43158764    -0.77700
C865        C  0.96191294  0.27565047  0.41574604     0.83100
N866        N  0.96251194  0.29922502  0.38485542    -0.79400
C867        C  0.65848691  0.15923519  0.37292546     0.80600
N868        N  0.69013518  0.15250422  0.38738783    -0.77800
C869        C  0.71589173  0.17750132  0.41700562     0.83000
N870        N  0.70935957  0.20847157  0.43229069    -0.77700
C871        C  0.67933433  0.21653322  0.41726444     0.83100
N872        N  0.65378504  0.19173009  0.38781513    -0.79400
C873        C  0.83763175  0.50357945  0.37137861     0.80600
N874        N  0.83788187  0.03676428  0.38610201    -0.77800
C875        C  0.81558218  0.03663641  0.41779289     0.83000
N876        N  0.78966836  0.49937333  0.43374005    -0.77700
C877        C  0.78198067  0.46216594  0.41642795     0.83100
N878        N  0.80623250  0.46425468  0.38529080    -0.79400
C879        C  0.50394175  0.50431901  0.21463722     0.45800
H880        H  0.50610467  0.50506824  0.18256184    -0.03200
C881        C  0.49095419  0.99117025  0.28684275     0.45800
H882        H  0.49014529  0.99288849  0.31894274    -0.03200
C883        C  0.95814354  0.99002092  0.22801878    -0.16900
C884        C  0.50554599  0.46629375  0.23322944    -0.16700
C885        C  0.53156343  0.02831569  0.22866311    -0.17100
C886        C  0.96413651  0.50211400  0.26813300    -0.17000
C887        C  0.50233343  0.46481184  0.27288969    -0.16600
C888        C  0.53139575  0.02995443  0.26851811    -0.16900
C889        C  0.84875950  0.96344312  0.31609360    -0.11900
C890        C  0.86849894  0.50589923  0.34100429     0.05100
C891        C  0.91172732  0.54090308  0.33927018    -0.07200
C892        C  0.94168058  0.53848752  0.31518559    -0.08000
C893        C  0.92948628  0.50303483  0.29075048    -0.02500
C894        C  0.87792515  0.96157067  0.28989977     0.04300
N895        N  0.86286334  0.92452327  0.26514242     0.66800
H896        H  0.81636479  0.93582140  0.31846343     0.15700
H897        H  0.97496809  0.56489874  0.31536631     0.15400
N898        N  0.92628278  0.57903473  0.36214977     0.74500
O899        O  0.89288222  0.41653761  0.25616663    -0.38900
O900        O  0.82754509  0.91013121  0.24714851    -0.38900
O901        O  0.95137633  0.58612046  0.39039610    -0.39600
O902        O  0.91877683  0.10724309  0.34170466    -0.39700
C903        C  0.55348599  0.08811492  0.31736960    -0.11900
C904        C  0.56538097  0.06492686  0.29287997     0.05100
C905        C  0.60846182  0.07408342  0.29368513    -0.07200
C906        C  0.63837806  0.10529491  0.31940149    -0.08000
C907        C  0.62662433  0.12873041  0.34399595    -0.02500
C908        C  0.58362860  0.12046587  0.34198536     0.04300
N909        N  0.56950157  0.14388108  0.36515530     0.66800
H910        H  0.52054417  0.08145745  0.31704802     0.15700
H911        H  0.67094915  0.11084298  0.32037128     0.15400
N912        N  0.62178771  0.04997866  0.27070402     0.74500
O913        O  0.57095356  0.17712224  0.35135005    -0.38900
O914        O  0.54748644  0.12658805  0.39519936    -0.38900
O915        O  0.64522059  0.06772708  0.24147962    -0.39600
O916        O  0.62174116  0.01803752  0.28585911    -0.39700
C917        C  0.97040754  0.37474658  0.34792809    -0.11900
C918        C  0.00097430  0.36209678  0.34211013     0.05100
C919        C  0.53349411  0.38572113  0.31336786    -0.07200
C920        C  0.53324583  0.41856961  0.29156562    -0.08000
C921        C  0.50148787  0.42992362  0.29719465    -0.02500
C922        C  0.97102805  0.40796884  0.32636655     0.04300
N923        N  0.93944443  0.41961368  0.33537985     0.66800
H924        H  0.94653657  0.35985014  0.37067032     0.15700
H925        H  0.55849162  0.43571516  0.27040435     0.15400
N926        N  0.56659909  0.37568498  0.30642827     0.74500
O927        O  0.44196575  0.44468259  0.35721590    -0.38900
O928        O  0.90017690  0.39188980  0.32962678    -0.38900
O929        O  0.56248427  0.35106658  0.27861364    -0.39600
O930        O  0.10142367  0.39319715  0.32045841    -0.39700
C931        C  0.89047711  0.47496522  0.14264259    -0.11900
C932        C  0.87728658  0.00141386  0.14267853     0.05100
C933        C  0.89852222  0.03368361  0.17127082    -0.07200
C934        C  0.92370409  0.02876393  0.19952080    -0.08000
C935        C  0.92854393  0.99237725  0.19958464    -0.02500
C936        C  0.91935909  0.47348752  0.16871097     0.04300
N937        N  0.93087191  0.44131333  0.16278071     0.66800
H938        H  0.87851194  0.45238571  0.11858735     0.15700
H939        H  0.94002602  0.05378022  0.22120537     0.15400
N940        N  0.89436775  0.07117370  0.17246921     0.74500
O941        O  0.90454027  0.40313789  0.17334678    -0.38900
O942        O  0.95783510  0.44727665  0.13662450    -0.40500
O943        O  0.86098353  0.06889194  0.18673230    -0.39600
O944        O  0.92393280  0.10655747  0.15888471    -0.39700
C945        C  0.04036815  0.41367417  0.15487419    -0.11900
C946        C  0.00329827  0.37240622  0.15224555     0.05100
C947        C  0.46860367  0.36121636  0.18078544    -0.07200
C948        C  0.47135463  0.39123535  0.20817401    -0.08000
C949        C  0.50710080  0.43327051  0.20900163    -0.02500
C950        C  0.04348201  0.44351682  0.18243041     0.04300
N951        N  0.08236087  0.48464028  0.18470148     0.66800
H952        H  0.06712364  0.42321284  0.13514667     0.15700
H953        H  0.44475217  0.38218154  0.22798551     0.15400
N954        N  0.43145222  0.31869983  0.18099140     0.74500
O955        O  0.59233410  0.51100893  0.15785772    -0.38900
O956        O  0.10926488  0.49126472  0.21122472    -0.38900
O957        O  0.43149452  0.28981886  0.20174241    -0.39600
O958        O  0.89873146  0.31342886  0.15966035    -0.39700
C959        C  0.57979308  0.04688451  0.17190033    -0.11900
C960        C  0.56414230  0.06140022  0.20200093     0.05100
C961        C  0.57650347  0.10557851  0.20316918    -0.07200
C962        C  0.60542698  0.13415873  0.17542034    -0.08000
C963        C  0.62135440  0.11949628  0.14562317    -0.02500
C964        C  0.60800368  0.07522963  0.14392492     0.04300
N965        N  0.62050253  0.05796491  0.11260354     0.66800
H966        H  0.56914021  0.01287970  0.16940955     0.15700
H967        H  0.61476533  0.16796400  0.17669476     0.15400
N968        N  0.55744253  0.12140240  0.22994141     0.74500
O969        O  0.64787576  0.04645875  0.11834588    -0.38900
O970        O  0.59832824  0.04650277  0.08187652    -0.38900
O971        O  0.58133249  0.15510103  0.24940008    -0.39600
O972        O  0.51753095  0.10785449  0.22770789    -0.39700
C973        C  0.88265798  0.41498042  0.79553284    -0.11900
C974        C  0.92523514  0.42325839  0.79785132     0.05100
C975        C  0.93513388  0.40028986  0.82514651    -0.07200
C976        C  0.90264757  0.36945001  0.84869104    -0.08000
C977        C  0.86047949  0.36222251  0.84767744    -0.02500
C978        C  0.85060973  0.38573109  0.82094673     0.04300
N979        N  0.80875858  0.38114658  0.81977672     0.66800
H980        H  0.87476513  0.43289557  0.77516303     0.15700
H981        H  0.91140799  0.35259926  0.86948875     0.15400
N982        N  0.97779417  0.40734692  0.82970437     0.74500
O983        O  0.80210472  0.40750935  0.83827285    -0.38900
O984        O  0.78174846  0.35695285  0.79459081    -0.38900
O985        O  0.98366233  0.37600935  0.82392215    -0.39600
O986        O  0.00375498  0.43747653  0.85175495    -0.39700
C987        C  0.53326678  0.11868502  0.79435980    -0.11900
C988        C  0.99930655  0.07553203  0.79297615     0.05100
C989        C  0.96418985  0.06505493  0.81763361    -0.07200
C990        C  0.96436986  0.09694753  0.84112079    -0.08000
C991        C  0.99948041  0.13968795  0.84121466    -0.02500
C992        C  0.53384543  0.14983843  0.81945237     0.04300
N993        N  0.56882004  0.19346189  0.81685465     0.66800
H994        H  0.55943298  0.12827429  0.77392034     0.15700
H995        H  0.93724250  0.08765165  0.86032558     0.15400
N996        N  0.92778973  0.02212694  0.81898136     0.74500
O997        O  0.60428178  0.20404679  0.83322721    -0.38900
O998        O  0.56732289  0.21837428  0.79196458    -0.38900
O999        O  0.92121468  0.99953576  0.84896535    -0.39600
O1000       O  0.89778450  0.01079172  0.79451475    -0.39700
C1001       C  0.61956277  0.46617043  0.81986574    -0.11900
C1002       C  0.63946622  0.50021124  0.84664793     0.05100
C1003       C  0.62914568  0.03820521  0.84912899    -0.07200
C1004       C  0.59718535  0.03627505  0.82486280    -0.08000
C1005       C  0.57503852  0.49447186  0.79587660    -0.02500
C1006       C  0.58812168  0.46329563  0.79375302     0.04300
N1007       N  0.57021181  0.42873005  0.76586694     0.66800
H1008       H  0.62840137  0.44149116  0.81941396     0.15700
H1009       H  0.58820644  0.06076711  0.82759732     0.15400
N1010       N  0.64855806  0.07245305  0.87690110     0.74500
O1011       O  0.59309868  0.41440792  0.75227691    -0.38900
O1012       O  0.53119266  0.41119210  0.75569774    -0.38900
O1013       O  0.67745990  0.10967247  0.86615063    -0.39600
O1014       O  0.63128319  0.06772463  0.90968597    -0.39700
C1015       C  0.89311120  0.35925730  0.66939768    -0.11900
C1016       C  0.86855133  0.37221396  0.64774448     0.05100
C1017       C  0.87049643  0.41140295  0.65799986    -0.07200
C1018       C  0.89838718  0.43737421  0.68759478    -0.08000
C1019       C  0.92375032  0.42481655  0.70825244    -0.02500
C1020       C  0.92018454  0.38477239  0.69954923     0.04300
N1021       N  0.94439514  0.36964727  0.72011893     0.66800
H1022       H  0.89132491  0.32884548  0.66307104     0.15700
H1023       H  0.90115007  0.46827677  0.69381993     0.15400
N1024       N  0.84567022  0.42627718  0.63801064     0.74500
O1025       O  0.93041024  0.35139845  0.75236837    -0.38900
O1026       O  0.96989230  0.36192713  0.70146686    -0.38900
O1027       O  0.81182712  0.42173475  0.65347119    -0.39600
O1028       O  0.86193643  0.45132941  0.60944627    -0.39700
C1029       C  0.96383134  0.07521703  0.70176672    -0.11900
C1030       C  0.00117084  0.07221975  0.70398811     0.05100
C1031       C  0.53559188  0.09628236  0.67809107    -0.07200
C1032       C  0.53267309  0.12338091  0.65103703    -0.08000
C1033       C  0.99470302  0.12603931  0.64793009    -0.02500
C1034       C  0.96013927  0.10163922  0.67383644     0.04300
N1035       N  0.92133777  0.10336252  0.67246492     0.66800
H1036       H  0.93707121  0.05619456  0.72115320     0.15700
H1037       H  0.55805774  0.13870247  0.62960694     0.15400
N1038       N  0.57275888  0.09183915  0.67648055     0.74500
O1039       O  0.88888165  0.07429500  0.65450371    -0.38900
O1040       O  0.91671254  0.12806661  0.69538116    -0.38900
O1041       O  0.57286736  0.06561900  0.65223652    -0.39600
O1042       O  0.60850477  0.12402569  0.68638427    -0.39700
C1043       C  0.55867701  0.97179865  0.67667437    -0.11900
C1044       C  0.57564230  0.00276694  0.70646773     0.05100
C1045       C  0.61801559  0.51938041  0.70705481    -0.07200
C1046       C  0.64357954  0.51872632  0.67690192    -0.08000
C1047       C  0.62982139  0.00008722  0.64900738    -0.02500
C1048       C  0.58521524  0.97001169  0.64830303     0.04300
N1049       N  0.56602908  0.93875481  0.61796736     0.66800
H1050       H  0.52423960  0.94891411  0.67511085     0.15700
H1051       H  0.67832335  0.54007140  0.67838732     0.15400
N1052       N  0.63923090  0.54845468  0.73862567     0.74500
O1053       O  0.55516269  0.89993420  0.62436294    -0.38900
O1054       O  0.55284346  0.94809947  0.58766668    -0.38900
O1055       O  0.66896945  0.54680817  0.75662000    -0.39600
O1056       O  0.63728711  0.09436872  0.74196227    -0.39700
C1057       C  0.50151148  0.49347851  0.78911056     0.45800
H1058       H  0.50119188  0.49336144  0.82126004    -0.03200
C1059       C  0.50349989  0.00293332  0.71528793     0.45800
H1060       H  0.50239722  0.00229316  0.68312774    -0.03200
C1061       C  0.96487586  0.96233457  0.77236486    -0.16900
C1062       C  0.99553516  0.53648528  0.77289910    -0.16700
C1063       C  0.54408053  0.00484346  0.77220315    -0.17100
C1064       C  0.96506146  0.96159048  0.73249165    -0.17000
C1065       C  0.50233147  0.53387013  0.73223782    -0.16600
C1066       C  0.54136835  0.49495767  0.73127168    -0.16900
Zn1067     Zn  0.83971114  0.72213483  0.01897326     1.49700
Zn1068     Zn  0.83498308  0.66762552  0.94271132     1.49400
Zn1069     Zn  0.88244958  0.66376027  0.02007358     1.49100
Zn1070     Zn  0.78138663  0.62070459  0.02185638     1.49500
O1071       O  0.83446741  0.66856647  0.00028195    -1.83800
O1072       O  0.83264787  0.75402977  0.97456063    -0.74400
O1073       O  0.89288986  0.67545375  0.92248187    -0.74200
O1074       O  0.91981471  0.71341209  0.05361021    -0.73800
O1075       O  0.82622531  0.71636290  0.92110038    -0.74400
O1076       O  0.89541574  0.75908745  0.04872068    -0.74000
O1077       O  0.92260356  0.67011091  0.97724481    -0.74600
O1078       O  0.79304669  0.58229770  0.05483975    -0.74000
O1079       O  0.78506529  0.60888354  0.92449045    -0.74800
O1080       O  0.86375822  0.60873421  0.05006815    -0.74200
O1081       O  0.74744790  0.58070383  0.97882990    -0.74600
O1082       O  0.74574206  0.63986113  0.05296993    -0.74500
O1083       O  0.79062527  0.71098099  0.05310842    -0.74300
C1084       C  0.82597716  0.74778502  0.93828774     0.77500
C1085       C  0.92401290  0.67578118  0.94082163     0.78000
C1086       C  0.92312297  0.74960925  0.06070211     0.76900
C1087       C  0.82649174  0.57997108  0.06176146     0.77300
C1088       C  0.75329274  0.57838472  0.94279891     0.78400
C1089       C  0.75515858  0.67787737  0.06281997     0.77500
C1090       C  0.83205693  0.83098091  0.87022451     0.80600
N1091       N  0.83893685  0.80021810  0.88628870    -0.77800
C1092       C  0.81536941  0.77685276  0.91717068     0.83000
N1093       N  0.78561151  0.78511063  0.93248936    -0.77700
C1094       C  0.77738585  0.81452097  0.91607087     0.83100
N1095       N  0.80097705  0.83781646  0.88515318    -0.79400
Zn1096     Zn  0.72329374  0.84011246  0.01646925     1.49700
Zn1097     Zn  0.66608342  0.88346144  0.01666213     1.49400
Zn1098     Zn  0.66834484  0.83414058  0.93928602     1.49100
Zn1099     Zn  0.62236564  0.78154332  0.01813330     1.49500
O1100       O  0.66995876  0.83470193  0.99697196    -1.83800
O1101       O  0.76107835  0.89667228  0.04469225    -0.74400
O1102       O  0.67191496  0.92239879  0.97324009    -0.74200
O1103       O  0.71727645  0.82568223  0.91865718    -0.73800
O1104       O  0.71657279  0.92238732  0.04907502    -0.74400
O1105       O  0.75449683  0.83236476  0.97258459    -0.74000
O1106       O  0.67649429  0.89214964  0.91851884    -0.74600
O1107       O  0.58226261  0.74586097  0.97513908    -0.74000
O1108       O  0.61166327  0.86568389  0.04710767    -0.74800
O1109       O  0.61000352  0.78289341  0.92053093    -0.74200
O1110       O  0.58494123  0.79468902  0.05038260    -0.74600
O1111       O  0.64154204  0.74661377  0.05037423    -0.74500
O1112       O  0.71259886  0.79142723  0.05137236    -0.74300
C1113       C  0.75267295  0.92538762  0.05586971     0.77500
C1114       C  0.67742104  0.92358529  0.93683936     0.78000
C1115       C  0.74841783  0.82545325  0.93637428     0.76900
C1116       C  0.57992154  0.75071920  0.93885895     0.77300
C1117       C  0.58280862  0.82811613  0.05805827     0.78400
C1118       C  0.67933779  0.75595482  0.06086264     0.77500
C1119       C  0.66557642  0.66656891  0.12496451     0.80600
N1120       N  0.65961887  0.69799824  0.10910858    -0.77800
C1121       C  0.68618235  0.72383657  0.08068294     0.83000
N1122       N  0.71810376  0.71773743  0.06767953    -0.77700
C1123       C  0.72317153  0.68544209  0.08173366     0.83100
N1124       N  0.69675225  0.65956373  0.11034070    -0.79400
C1125       C  0.67125387  0.00446580  0.87414796     0.80600
N1126       N  0.70075358  0.53781676  0.89157052    -0.77800
C1127       C  0.72314703  0.53793389  0.92312528     0.83000
N1128       N  0.71846644  0.00195012  0.93412998    -0.77700
C1129       C  0.68818440  0.96433702  0.91741094     0.83100
N1130       N  0.66409616  0.96556979  0.88757678    -0.79400
C1131       C  0.00077309  0.83705462  0.12553579     0.80600
N1132       N  0.54214838  0.84778575  0.10312482    -0.77800
C1133       C  0.54296547  0.82115514  0.07552550     0.83000
N1134       N  0.00047323  0.78764345  0.06598429    -0.77700
C1135       C  0.96271925  0.78201569  0.07952765     0.83100
N1136       N  0.96272883  0.80672775  0.10920209    -0.79400
C1137       C  0.00203422  0.66812302  0.87508133     0.80600
N1138       N  0.96410229  0.66189058  0.89014175    -0.77800
C1139       C  0.96425888  0.68536982  0.92104055     0.83000
N1140       N  0.00250463  0.71472080  0.93729403    -0.77700
C1141       C  0.53968569  0.71924826  0.91905204     0.83100
N1142       N  0.53972791  0.69419667  0.88962235    -0.79400
C1143       C  0.84597948  0.50443101  0.11894183     0.80600
N1144       N  0.85053987  0.54198813  0.10508175    -0.77800
C1145       C  0.82063862  0.54083662  0.08033047     0.83000
N1146       N  0.78958942  0.00295605  0.06389230    -0.77700
C1147       C  0.78608194  0.96501012  0.07417800     0.83100
N1148       N  0.81517018  0.96487323  0.09896578    -0.79400
Zn1149     Zn  0.83694806  0.61692402  0.52112559     1.49700
Zn1150     Zn  0.77897434  0.66077325  0.52247840     1.49400
Zn1151     Zn  0.87941990  0.71853214  0.52289774     1.49100
Zn1152     Zn  0.83173008  0.66503856  0.44470746     1.49500
O1153       O  0.83158885  0.66508725  0.50222879    -1.83800
O1154       O  0.78509159  0.57675848  0.55156082    -0.74400
O1155       O  0.79050605  0.71030318  0.55710139    -0.74200
O1156       O  0.91668811  0.70755234  0.55728874    -0.73800
O1157       O  0.74155013  0.60394498  0.55023071    -0.74400
O1158       O  0.89098520  0.63673797  0.55370229    -0.74000
O1159       O  0.86116550  0.75569581  0.55176311    -0.74600
O1160       O  0.88988281  0.71497639  0.42576493    -0.74000
O1161       O  0.74691237  0.66865163  0.47891233    -0.74800
O1162       O  0.91986255  0.75135880  0.48031385    -0.74200
O1163       O  0.78246473  0.67368779  0.42449389    -0.74600
O1164       O  0.82502556  0.60793789  0.42356841    -0.74500
O1165       O  0.83440330  0.57894406  0.47701110    -0.74300
C1166       C  0.74933802  0.57418312  0.55928848     0.77500
C1167       C  0.82405976  0.74681361  0.56365546     0.78000
C1168       C  0.91919143  0.67446961  0.56527506     0.76900
C1169       C  0.92124262  0.74599405  0.44410534     0.77300
C1170       C  0.75204964  0.67487030  0.44256998     0.78400
C1171       C  0.82756485  0.57774420  0.44071022     0.77500
C1172       C  0.84432764  0.84405275  0.61884129     0.80600
N1173       N  0.84830711  0.81028857  0.60616768    -0.77800
C1174       C  0.81847921  0.78062291  0.58152250     0.83000
N1175       N  0.78499065  0.78492109  0.56956920    -0.77700
C1176       C  0.78160098  0.81912107  0.58101743     0.83100
N1177       N  0.81144344  0.84889834  0.60543307    -0.79400
Zn1178     Zn  0.72161896  0.88193654  0.52181419     1.49700
Zn1179     Zn  0.66136636  0.77904659  0.52383638     1.49400
Zn1180     Zn  0.61978884  0.83654954  0.52685145     1.49100
Zn1181     Zn  0.66585381  0.83276889  0.44646452     1.49500
O1182       O  0.66727601  0.83270360  0.50412562    -1.83800
O1183       O  0.75710201  0.86259810  0.55217857    -0.74400
O1184       O  0.60520816  0.74068284  0.55367777    -0.74200
O1185       O  0.63951526  0.89175718  0.55666897    -0.73800
O1186       O  0.71183336  0.79148614  0.55656079    -0.74400
O1187       O  0.71094633  0.92201823  0.55370505    -0.74000
O1188       O  0.58040220  0.78572367  0.55947841    -0.74600
O1189       O  0.60812579  0.82625866  0.42893685    -0.74000
O1190       O  0.66818955  0.74695977  0.47990958    -0.74800
O1191       O  0.58046540  0.83220041  0.48483026    -0.74200
O1192       O  0.67213666  0.78253193  0.42572100    -0.74600
O1193       O  0.71628677  0.88958186  0.42403061    -0.74500
O1194       O  0.75580869  0.91977685  0.47691223    -0.74300
C1195       C  0.74814784  0.82512736  0.56338029     0.77500
C1196       C  0.57684674  0.74923345  0.56569378     0.78000
C1197       C  0.67743668  0.92283055  0.56398347     0.76900
C1198       C  0.57817154  0.82677773  0.44840364     0.77300
C1199       C  0.67355917  0.75208071  0.44349856     0.78400
C1200       C  0.74949716  0.92041230  0.44067081     0.77500
C1201       C  0.65332824  0.49329638  0.61351107     0.80600
N1202       N  0.68657697  0.53216721  0.60153260    -0.77800
C1203       C  0.71522854  0.53354242  0.57533965     0.83000
N1204       N  0.71068800  0.49628252  0.56138876    -0.77700
C1205       C  0.68328758  0.96267541  0.58101949     0.83100
N1206       N  0.65453991  0.96230993  0.60655054    -0.79400
C1207       C  0.99504208  0.66019588  0.62710173     0.80600
N1208       N  0.95746499  0.65436378  0.61203644    -0.77800
C1209       C  0.95840531  0.68167112  0.58451275     0.83000
N1210       N  0.49886568  0.71172177  0.57245459    -0.77700
C1211       C  0.53674871  0.71564682  0.58387329     0.83100
N1212       N  0.53637969  0.68713553  0.60982594    -0.79400
C1213       C  0.99966521  0.83182215  0.37919089     0.80600
N1214       N  0.53848322  0.84347312  0.40032298    -0.77800
C1215       C  0.53813368  0.81843822  0.42979904     0.83000
N1216       N  0.99946902  0.78369394  0.43966535    -0.77700
C1217       C  0.96145214  0.77587959  0.42423791     0.83100
N1218       N  0.96161171  0.80022955  0.39429109    -0.79400
C1219       C  0.67109067  0.67225997  0.37371984     0.80600
N1220       N  0.70135482  0.66467916  0.38977919    -0.77800
C1221       C  0.72281353  0.68586616  0.42234248     0.83000
N1222       N  0.71332383  0.71412739  0.43923106    -0.77700
C1223       C  0.68444680  0.72316275  0.42283952     0.83100
N1224       N  0.66308030  0.70195051  0.39020011    -0.79400
C1225       C  0.83192105  0.99892305  0.37103548     0.80600
N1226       N  0.84352233  0.54053556  0.38848971    -0.77800
C1227       C  0.81941545  0.53854398  0.41951554     0.83000
N1228       N  0.78741798  0.99848666  0.43470252    -0.77700
C1229       C  0.77951805  0.96035159  0.41946308     0.83100
N1230       N  0.80203640  0.96050366  0.38763184    -0.79400
C1231       C  0.49259113  0.98758524  0.21194232     0.45800
H1232       H  0.49318005  0.98606946  0.17986553    -0.03200
C1233       C  0.50029331  0.50344423  0.28971318     0.45800
H1234       H  0.49960777  0.50417542  0.32173901    -0.03200
C1235       C  0.96676970  0.50217858  0.22833705    -0.16900
C1236       C  0.49297630  0.94968466  0.23223007    -0.16700
C1237       C  0.54093768  0.54496001  0.23344083    -0.17100
C1238       C  0.95628075  0.99431980  0.26728210    -0.17000
C1239       C  0.49057806  0.95031536  0.27175898    -0.16600
C1240       C  0.53988917  0.54404379  0.27303256    -0.16900
C1241       C  0.85590792  0.47104696  0.31517554    -0.11900
C1242       C  0.86140419  0.99993574  0.33985103     0.05100
C1243       C  0.90324070  0.03636064  0.33439473    -0.07200
C1244       C  0.93193119  0.03442571  0.30830368    -0.08000
C1245       C  0.92102621  0.99650076  0.28808695    -0.02500
C1246       C  0.88564840  0.46959805  0.28949686     0.04300
N1247       N  0.87071691  0.43401698  0.26284221     0.66800
H1248       H  0.82282836  0.44433288  0.31537110     0.15700
H1249       H  0.96253969  0.06254802  0.30381449     0.15400
N1250       N  0.91856363  0.07506682  0.35660317     0.74500
O1251       O  0.88491308  0.90659262  0.26037323    -0.38900
O1252       O  0.83499517  0.41994257  0.24564209    -0.38900
O1253       O  0.93968525  0.07997960  0.38732252    -0.39600
O1254       O  0.92187865  0.60943136  0.34920546    -0.39700
C1255       C  0.58542331  0.62088656  0.29470490    -0.11900
C1256       C  0.57440972  0.57750196  0.29785129     0.05100
C1257       C  0.59722754  0.56643816  0.32408487    -0.07200
C1258       C  0.63008135  0.59834676  0.34681368    -0.08000
C1259       C  0.64066864  0.64164261  0.34454463    -0.02500
C1260       C  0.61828193  0.65297512  0.31780083     0.04300
N1261       N  0.62915322  0.69688964  0.31310037     0.66800
H1262       H  0.56830357  0.62983015  0.27437756     0.15700
H1263       H  0.64642062  0.58867337  0.36734725     0.15400
N1264       N  0.58818054  0.52302131  0.32754292     0.74500
O1265       O  0.65764541  0.72049821  0.28880244    -0.38900
O1266       O  0.60479912  0.70919949  0.32711115    -0.38900
O1267       O  0.61028927  0.51147037  0.30813066    -0.39600
O1268       O  0.56733898  0.50091811  0.35654659    -0.39700
C1269       C  0.96538870  0.87207200  0.35433444    -0.11900
C1270       C  0.99927709  0.86340825  0.35195060     0.05100
C1271       C  0.52996503  0.91108373  0.35514641    -0.07200
C1272       C  0.52548811  0.93710385  0.32754954    -0.08000
C1273       C  0.49340635  0.91919671  0.29872301    -0.02500
C1274       C  0.96500020  0.90422639  0.33169866     0.04300
N1275       N  0.93015404  0.91219422  0.33684591     0.66800
H1276       H  0.93944408  0.85467947  0.37490393     0.15700
H1277       H  0.54761202  0.97173652  0.32855193     0.15400
N1278       N  0.56371709  0.93105974  0.38328653     0.74500
O1279       O  0.39747665  0.84619538  0.27157003    -0.38900
O1280       O  0.89189994  0.88079577  0.33406495    -0.38900
O1281       O  0.60164351  0.94092139  0.37423446    -0.39600
O1282       O  0.10460714  0.90455544  0.33552886    -0.39700
C1283       C  0.88302057  0.96564928  0.14244611    -0.11900
C1284       C  0.87723553  0.50513682  0.14695507     0.05100
C1285       C  0.89335223  0.53453480  0.17819985    -0.07200
C1286       C  0.92148133  0.53239239  0.20506747    -0.08000
C1287       C  0.93477433  0.50199009  0.20079423    -0.02500
C1288       C  0.90868261  0.96114320  0.17012372     0.04300
N1289       N  0.91348124  0.92413596  0.16795921     0.66800
H1290       H  0.86762222  0.94084706  0.12040966     0.15700
H1291       H  0.93358198  0.55513137  0.22894047     0.15400
N1292       N  0.88085327  0.56614411  0.18340774     0.74500
O1293       O  0.88320160  0.88848541  0.18033474    -0.38900
O1294       O  0.93928564  0.92393268  0.14335631    -0.40500
O1295       O  0.84263085  0.55459117  0.19303430    -0.39600
O1296       O  0.90730824  0.60538224  0.17605777    -0.39700
C1297       C  0.04093138  0.89989703  0.16962448    -0.11900
C1298       C  0.00136282  0.86376542  0.15878905     0.05100
C1299       C  0.46038441  0.86025878  0.16148940    -0.07200
C1300       C  0.45933373  0.88569234  0.19117049    -0.08000
C1301       C  0.49670210  0.91732510  0.20901490    -0.02500
C1302       C  0.04353970  0.92835882  0.19849197     0.04300
N1303       N  0.08583898  0.96154708  0.21036765     0.66800
H1304       H  0.07057132  0.90665819  0.15542892     0.15700
H1305       H  0.42860280  0.88035101  0.20094554     0.15400
N1306       N  0.41996199  0.82861983  0.14484267     0.74500
O1307       O  0.60825167  0.97805604  0.20225007    -0.38900
O1308       O  0.10576312  0.95110639  0.23400925    -0.38900
O1309       O  0.39406127  0.79596284  0.16445071    -0.39600
O1310       O  0.89670722  0.81723235  0.15001525    -0.39700
C1311       C  0.61724243  0.58915144  0.21066135    -0.11900
C1312       C  0.57458768  0.58048448  0.20965696     0.05100
C1313       C  0.56331705  0.60281826  0.18308551    -0.07200
C1314       C  0.59383591  0.63147494  0.15670922    -0.08000
C1315       C  0.63587773  0.63830695  0.15578984    -0.02500
C1316       C  0.64781879  0.61743817  0.18376772     0.04300
N1317       N  0.69061197  0.62438902  0.18529790     0.66800
H1318       H  0.62638732  0.57256108  0.23137671     0.15700
H1319       H  0.58401420  0.64761413  0.13610766     0.15400
N1320       N  0.52095996  0.59698475  0.18259397     0.74500
O1321       O  0.71811777  0.65301080  0.20765382    -0.38900
O1322       O  0.69795588  0.59636373  0.17116426    -0.38900
O1323       O  0.51169375  0.61745549  0.20665536    -0.39600
O1324       O  0.49738191  0.58057582  0.15307042    -0.39700
C1325       C  0.88724316  0.91558812  0.79085909    -0.11900
C1326       C  0.93077039  0.92833678  0.79728222     0.05100
C1327       C  0.94092539  0.90831156  0.82747399    -0.07200
C1328       C  0.90778883  0.87530832  0.84907835    -0.08000
C1329       C  0.86443219  0.86285505  0.84306452    -0.02500
C1330       C  0.85424904  0.88392944  0.81402100     0.04300
N1331       N  0.81079581  0.87384574  0.80777593     0.66800
H1332       H  0.87888110  0.93103363  0.76830957     0.15700
H1333       H  0.91647279  0.86047745  0.87198150     0.15400
N1334       N  0.98436869  0.91992032  0.83648685     0.74500
O1335       O  0.79757713  0.89630986  0.82426943    -0.38900
O1336       O  0.78934499  0.84949381  0.77996507    -0.38900
O1337       O  0.99502284  0.89168380  0.83227295    -0.39600
O1338       O  0.00516989  0.94993164  0.86061435    -0.39700
C1339       C  0.53855221  0.60612376  0.80173940    -0.11900
C1340       C  0.99646881  0.57123352  0.79680496     0.05100
C1341       C  0.95881658  0.56647934  0.81386650    -0.07200
C1342       C  0.96126165  0.59937537  0.83742194    -0.08000
C1343       C  0.00102312  0.63714656  0.84546026    -0.02500
C1344       C  0.53991307  0.63796904  0.82631729     0.04300
N1345       N  0.58039852  0.67703888  0.83153586     0.66800
H1346       H  0.56787839  0.61198468  0.78745082     0.15700
H1347       H  0.93174676  0.59419762  0.85073110     0.15400
N1348       N  0.91800972  0.52769221  0.80902809     0.74500
O1349       O  0.60731203  0.67791234  0.85560141    -0.38900
O1350       O  0.59276831  0.70672580  0.80667004    -0.38900
O1351       O  0.90573175  0.49873977  0.83459046    -0.39600
O1352       O  0.89019704  0.52791547  0.78683200    -0.39700
C1353       C  0.62126805  0.97391547  0.81812556    -0.11900
C1354       C  0.64083742  0.00616420  0.84642080     0.05100
C1355       C  0.62816555  0.53259109  0.84657779    -0.07200
C1356       C  0.59541977  0.52866060  0.82222437    -0.08000
C1357       C  0.57733157  0.00389238  0.79679923    -0.02500
C1358       C  0.58991621  0.97249041  0.79297509     0.04300
N1359       N  0.57097998  0.93861328  0.76458429     0.66800
H1360       H  0.63010911  0.94931290  0.81585231     0.15700
H1361       H  0.58652986  0.55332051  0.82323530     0.15400
N1362       N  0.64917861  0.56960385  0.87129687     0.74500
O1363       O  0.59346601  0.92511379  0.74859722    -0.38900
O1364       O  0.53120237  0.92014968  0.75709629    -0.38900
O1365       O  0.67878937  0.60500238  0.85776733    -0.39600
O1366       O  0.63311724  0.56903514  0.90389263    -0.39700
C1367       C  0.88965770  0.85783141  0.67720012    -0.11900
C1368       C  0.87431902  0.87406026  0.64835666     0.05100
C1369       C  0.88668454  0.91809251  0.64918247    -0.07200
C1370       C  0.91413513  0.94486676  0.67846343    -0.08000
C1371       C  0.93059000  0.92904171  0.70681719    -0.02500
C1372       C  0.91772665  0.88469905  0.70620431     0.04300
N1373       N  0.93445842  0.86639725  0.73277752     0.66800
H1374       H  0.88006386  0.82392227  0.67713383     0.15700
H1375       H  0.92407922  0.97886405  0.67810786     0.15400
N1376       N  0.87436269  0.93686202  0.61894809     0.74500
O1377       O  0.91099694  0.84480385  0.76086026    -0.38900
O1378       O  0.96182438  0.85728824  0.72026261    -0.38900
O1379       O  0.84786454  0.94919573  0.62588642    -0.39600
O1380       O  0.89553047  0.94803654  0.58776171    -0.39700
C1381       C  0.95926675  0.57416312  0.70595859    -0.11900
C1382       C  0.99615321  0.57058053  0.70890913     0.05100
C1383       C  0.53780883  0.59332432  0.68294556    -0.07200
C1384       C  0.53548014  0.62157326  0.65680522    -0.08000
C1385       C  0.99444526  0.63010925  0.65670654    -0.02500
C1386       C  0.95827662  0.60413323  0.68055366     0.04300
N1387       N  0.92104874  0.60868767  0.68042553     0.66800
H1388       H  0.93101840  0.55333220  0.72302484     0.15700
H1389       H  0.56296523  0.64052512  0.63811866     0.15400
N1390       N  0.57654121  0.59163075  0.68394892     0.74500
O1391       O  0.88794072  0.58220285  0.66150994    -0.38900
O1392       O  0.91804540  0.63274347  0.70532559    -0.38900
O1393       O  0.58040895  0.56712468  0.66021138    -0.39600
O1394       O  0.61031420  0.62425402  0.69673664    -0.39700
C1395       C  0.55452765  0.46336663  0.67348401    -0.11900
C1396       C  0.57249112  0.49222835  0.70483358     0.05100
C1397       C  0.62097648  0.03135206  0.70853793    -0.07200
C1398       C  0.64733637  0.02996511  0.67946254    -0.08000
C1399       C  0.62500674  0.49165907  0.64473477    -0.02500
C1400       C  0.58016056  0.46308916  0.64346775     0.04300
N1401       N  0.55979527  0.43601444  0.61057445     0.66800
H1402       H  0.51989516  0.44171610  0.67147987     0.15700
H1403       H  0.68189505  0.05237005  0.68078133     0.15400
N1404       N  0.64124430  0.06155255  0.73959488     0.74500
O1405       O  0.54754124  0.39631806  0.61228255    -0.38900
O1406       O  0.54663402  0.44971239  0.58323283    -0.38900
O1407       O  0.67035834  0.06049836  0.75922923    -0.39600
O1408       O  0.63539442  0.58117478  0.74287010    -0.39700
loop_ 
_geom_bond_atom_site_label_1 
_geom_bond_atom_site_label_2 
_geom_bond_distance 
_geom_bond_site_symmetry_2 
_ccdc_geom_bond_type 
C1            H2   1.108       .  S
C1          C359   1.545       .  S
C1          C710   1.543       .  S
C1         C1061   1.540   1_445  S
C3            H4   1.112       .  S
C3          C361   1.529       .  S
C3          C712   1.538       .  S
C3          C362   1.540   1_655  S
C5         C1057   1.539       .  S
C5            C8   1.371       .  D
C5          C270   1.483       .  S
C6          C705   1.545       .  S
C6          C713   1.375       .  D
C6          C284   1.489       .  S
C7          C353   1.545   1_455  S
C7          C362   1.376       .  D
C7          C301   1.480       .  S
C8          C707   1.533       .  S
C8          C315   1.476       .  S
C9          C355   1.526       .  S
C9          C710   1.369       .  D
C9         C1030   1.480       .  S
C10         C355   1.532       .  S
C10         C359   1.372       .  D
C10         C340   1.486       .  S
Zn11         O15   1.950       .  S
Zn11         O16   1.995   1_554  S
Zn11         O20   2.041       .  S
Zn11         O27   1.998       .  S
Zn12         O15   1.984   1_556  S
Zn12         O17   2.072       .  S
Zn12         O19   2.061       .  S
Zn12         O23   2.051       .  S
Zn13         O15   1.938       .  S
Zn13         O18   1.979       .  S
Zn13         O21   2.007   1_554  S
Zn13         O24   2.019       .  S
Zn14         O15   1.942       .  S
Zn14         O22   1.965       .  S
Zn14         O25   1.979   1_554  S
Zn14         O26   2.020       .  S
O16          C28   1.272       .  A
O17          C29   1.279       .  A
O18          C30   1.269       .  A
O19          C28   1.280       .  A
O20          C30   1.275       .  A
O21          C29   1.272       .  A
O22          C31   1.267       .  A
O23          C32   1.277       .  A
O24          C31   1.273       .  A
O25          C32   1.269       .  A
O26          C33   1.272       .  A
O27          C33   1.270       .  A
C28          C36   1.468       .  S
C29          C83   1.475       .  S
C30          C79   1.461       .  S
C31          C89   1.452       .  S
C32          C71   1.461       .  S
C33          C67   1.461       .  S
C34         C273   1.483       .  S
C34          N35   1.363       .  A
C34          N39   1.366       .  A
N35          C36   1.350       .  A
C36          N37   1.355       .  A
N37          C38   1.358       .  A
C38          C59   1.471       .  S
C38          N39   1.361       .  A
Zn40         O44   1.949   1_554  S
Zn40         O45   2.033       .  S
Zn40         O49   1.999   1_554  S
Zn40         O56   1.997       .  S
Zn41         O44   1.949   1_554  S
Zn41         O46   1.999   1_554  S
Zn41         O48   1.984       .  S
Zn41         O52   2.027       .  S
Zn42         O44   1.995       .  S
Zn42         O47   2.062       .  S
Zn42         O50   2.067       .  S
Zn42         O53   2.063       .  S
Zn43         O44   1.948   1_554  S
Zn43         O51   1.992   1_554  S
Zn43         O54   1.988       .  S
Zn43         O55   2.032       .  S
O45          C57   1.274       .  A
O46          C58   1.272       .  A
O47          C59   1.278       .  A
O48          C57   1.269       .  A
O49          C59   1.272       .  A
O50          C58   1.279       .  A
O51          C60   1.272       .  A
O52          C61   1.273       .  A
O53          C60   1.278       .  A
O54          C61   1.270       .  A
O55          C62   1.273       .  A
O56          C62   1.270       .  A
C57          C91   1.461       .  S
C58          C73   1.471       .  S
C60          C85   1.468       .  S
C61          C77   1.460       .  S
C62          C65   1.464       .  S
C63         C259   1.476       .  S
C63          N64   1.364       .  A
C63          N68   1.362       .  A
N64          C65   1.359       .  A
C65          N66   1.353       .  A
N66          C67   1.352       .  A
C67          N68   1.355       .  A
C69         C298   1.480       .  S
C69          N74   1.367       .  A
C69         N422   1.360       .  A
N70          C71   1.350       .  A
N70         C421   1.358       .  A
C71         N424   1.357       .  A
N72          C73   1.355       .  A
N72         C423   1.355       .  A
C73          N74   1.359       .  A
C75         C242   1.479       .  S
C75          N80   1.364       .  A
C75         N780   1.363       .  A
N76          C77   1.354       .  A
N76         C779   1.364       .  A
C77         N782   1.349   1_455  A
N78          C79   1.353       .  A
N78         C781   1.351       .  A
C79          N80   1.357       .  A
C81         C287   1.490       .  S
C81          N82   1.370       .  A
C81         N790   1.365       .  A
N82          C83   1.360       .  A
C83          N84   1.354       .  A
N84         C789   1.355       .  A
C85          N86   1.359       .  A
C85         N788   1.355       .  A
N86         C785   1.366       .  A
C87         C228   1.468       .  S
C87          N88   1.359       .  A
C87         N444   1.359   1_545  A
N88          C89   1.356       .  A
C89         N442   1.355       .  A
N90          C91   1.352       .  A
N90         C441   1.352       .  A
C91          N92   1.355       .  A
N92         C439   1.363       .  A
Zn93         O97   1.949       .  S
Zn93         O98   1.983       .  S
Zn93        O102   2.025       .  S
Zn93        O109   1.996       .  S
Zn94         O97   1.954       .  S
Zn94         O99   1.991       .  S
Zn94        O101   2.042       .  S
Zn94        O105   1.993       .  S
Zn95         O97   1.951       .  S
Zn95        O100   1.995       .  S
Zn95        O103   2.042       .  S
Zn95        O106   2.011       .  S
Zn96         O97   1.995       .  S
Zn96        O104   2.075       .  S
Zn96        O107   2.074       .  S
Zn96        O108   2.071       .  S
O98         C110   1.268       .  A
O99         C111   1.270       .  A
O100        C112   1.271       .  A
O101        C110   1.274       .  A
O102        C112   1.273       .  A
O103        C111   1.275       .  A
O104        C113   1.280       .  A
O105        C114   1.272       .  A
O106        C113   1.273       .  A
O107        C114   1.280       .  A
O108        C115   1.279       .  A
O109        C115   1.272       .  A
C110        C147   1.464       .  S
C111        C118   1.465       .  S
C112        C153   1.460       .  S
C113        C161   1.476       .  S
C114        C165   1.472       .  S
C115        C171   1.472       .  S
C116        C312   1.480       .  S
C116        N117   1.365       .  A
C116        N121   1.360       .  A
N117        C118   1.356       .  A
C118        N119   1.354       .  A
N119        C120   1.354       .  A
C120        C139   1.459       .  S
C120        N121   1.354       .  A
Zn122       O126   1.943       .  S
Zn122       O127   2.020       .  S
Zn122       O131   1.989       .  S
Zn122       O138   2.000       .  S
Zn123       O126   1.958       .  S
Zn123       O128   2.049       .  S
Zn123       O130   1.991       .  S
Zn123       O134   1.994       .  S
Zn124       O126   1.946       .  S
Zn124       O129   2.023       .  S
Zn124       O132   1.985       .  S
Zn124       O135   1.991       .  S
Zn125       O126   1.993       .  S
Zn125       O133   2.072       .  S
Zn125       O136   2.055       .  S
Zn125       O137   2.084       .  S
O127        C139   1.273       .  A
O128        C140   1.275       .  A
O129        C141   1.273       .  A
O130        C139   1.270       .  A
O131        C141   1.270       .  A
O132        C140   1.268       .  A
O133        C142   1.280       .  A
O134        C143   1.272       .  A
O135        C142   1.271       .  A
O136        C143   1.279       .  A
O137        C144   1.280       .  A
O138        C144   1.271       .  A
C140        C155   1.466       .  S
C141        C149   1.459       .  S
C142        C159   1.471       .  S
C143        C167   1.466       .  S
C144        C173   1.479       .  S
C145        C343   1.473       .  S
C145        N146   1.365   1_565  A
C145        N502   1.360       .  A
N146        C147   1.358       .  A
C147        N148   1.353       .  A
N148        C501   1.351   1_545  A
C149        N150   1.357       .  A
C149        N500   1.353       .  A
N150        C497   1.362       .  A
C151        C329   1.486       .  S
C151        N152   1.364       .  A
C151        N860   1.368       .  A
N152        C153   1.360       .  A
C153        N858   1.352       .  A
N154        C155   1.351   1_655  A
N154        C857   1.352       .  A
C155        N156   1.354       .  A
N156        C855   1.366   1_455  A
C157        C214   1.485       .  S
C157        N162   1.367       .  A
C157        N862   1.364       .  A
N158        C159   1.359       .  A
N158        C861   1.365       .  A
C159        N864   1.358   1_455  A
N160        C161   1.355       .  A
N160        C863   1.358       .  A
C161        N162   1.357       .  A
C163        C203   1.480       .  S
C163        N164   1.366       .  A
C163        N168   1.361       .  A
N164        C165   1.360       .  A
C165        N166   1.358       .  A
N166        C167   1.356       .  A
C167        N168   1.352       .  A
C169        C186   1.499       .  S
C169        N174   1.371       .  A
C169        N522   1.367       .  A
N170        C171   1.358       .  A
N170        C521   1.366   1_545  A
C171        N524   1.356   1_545  A
N172        C173   1.356       .  A
N172        C523   1.355       .  A
C173        N174   1.363       .  A
C175        H176   1.109       .  S
C175        C180   1.538       .  S
C175        C533   1.530       .  S
C175       C1235   1.534   1_455  S
C177        H178   1.107   1_565  S
C177        C184   1.549   1_665  S
C177        C535   1.538       .  S
C177       C1238   1.544       .  S
C179       C1231   1.534       .  S
C179        C534   1.374       .  D
C179        C231   1.487       .  S
C180        C183   1.375       .  D
C180        C245   1.477       .  S
C181        C527   1.535   1_445  S
C181        C184   1.382       .  D
C181        C256   1.498       .  S
C182       C1233   1.546       .  S
C182        C531   1.377       .  D
C182        C189   1.491       .  S
C183        C529   1.539       .  S
C183        C217   1.497       .  S
C184        C200   1.490       .  S
C185        C190   1.400       .  A
C185        C538   1.407       .  A
C185        H192   1.083       .  S
C186        C187   1.416       .  A
C186        C537   1.409       .  A
C187        C188   1.399       .  A
C187        N194   1.429       .  S
C188        C189   1.399       .  A
C188        H193   1.085       .  S
C189        C542   1.420       .  A
C190        C541   1.403       .  A
C190        N191   1.423       .  S
N191        O196   1.262       .  A
N191        O547   1.262       .  A
N194        O197   1.262       .  A
N194        O550   1.262       .  A
O195        N543   1.261       .  A
O198        N546   1.262       .  A
C199        C200   1.401       .  A
C199        C204   1.394       .  A
C199        H206   1.050       .  S
C200        C201   1.412       .  A
C201        C202   1.405       .  A
C201        N208   1.427       .  S
C202        C203   1.404       .  A
C202        H207   1.082       .  S
C203        C204   1.411       .  A
C204        N205   1.430       .  S
N205        O210   1.262       .  A
N205        O209   1.262       .  A
N208        O211   1.262       .  A
N208        O212   1.261       .  A
C213        C214   1.402       .  A
C213        C218   1.398       .  A
C213        H220   1.084       .  S
C214        C919   1.411       .  A
C215        C216   1.403       .  A
C215        C918   1.409       .  A
C215        N222   1.429       .  S
C216        C217   1.409       .  A
C216        H221   1.082       .  S
C217        C922   1.417   1_455  A
C218        C921   1.414       .  A
C218        N219   1.430       .  S
N219        O224   1.262       .  A
N219        O927   1.262       .  A
N222        O225   1.262       .  A
N222        O930   1.262       .  A
O223        N923   1.262       .  A
O226        N926   1.262       .  A
C227        C232   1.394       .  A
C227        C580   1.397       .  A
C227        H234   1.084       .  S
C228        C229   1.408       .  A
C228        C579   1.393   1_545  A
C229        C230   1.403       .  A
C229        N236   1.429       .  S
C230        C231   1.408   1_545  A
C230        H235   1.078       .  S
C231        C584   1.410       .  A
C232        C583   1.414       .  A
C232        N233   1.428       .  S
N233        O238   1.262       .  A
N233        O237   1.261       .  A
N236        O239   1.262       .  A
N236        O240   1.262       .  A
C241        C242   1.404       .  A
C241        C246   1.395       .  A
C241        H248   1.084       .  S
C242        C947   1.414       .  A
C243        C244   1.400       .  A
C243        C946   1.416   1_655  A
C243        N250   1.429       .  S
C244        C245   1.399   1_655  A
C244        H249   1.084       .  S
C245        C950   1.405       .  A
C246        C949   1.406       .  A
C246        N247   1.428       .  S
N247        O252   1.262       .  A
N247        O955   1.262       .  A
N250        O253   1.262       .  A
N250        O958   1.262       .  A
O251        N951   1.262       .  A
O254        N954   1.262       .  A
C255        C256   1.404       .  A
C255        C260   1.391       .  A
C255        H262   1.076       .  S
C256        C257   1.417       .  A
C257        C258   1.407       .  A
C257        N264   1.430       .  S
C258        C259   1.405       .  A
C258        H263   1.084       .  S
C259        C260   1.405       .  A
C260        N261   1.430       .  S
N261        O266   1.262       .  A
N261        O265   1.262       .  A
N264        O267   1.262       .  A
N264        O268   1.262       .  A
C269        C270   1.405       .  A
C269        C274   1.405       .  A
C269        H276   1.083       .  S
C270        C271   1.410       .  A
C271        C272   1.392       .  A
C271        N278   1.430       .  S
C272        C273   1.404       .  A
C272        H277   1.084       .  S
C273        C274   1.412       .  A
C274        N275   1.428       .  S
N275        O280   1.262       .  A
N275        O279   1.262       .  A
N278        O281   1.262       .  A
N278        O282   1.261       .  A
C283        C288   1.407       .  A
C283        C988   1.402   1_455  A
C283        H290   1.084       .  S
C284        C285   1.410       .  A
C284        C987   1.403       .  A
C285        C286   1.399       .  A
C285        N292   1.427       .  S
C286        C287   1.403       .  A
C286        H291   1.084       .  S
C287        C992   1.416       .  A
C288        C991   1.418   1_455  A
C288        N289   1.428       .  S
N289        O294   1.262       .  A
N289        O293   1.262       .  A
N292        O295   1.262   1_545  A
N292        O296   1.261       .  A
C297        C298   1.402       .  A
C297        C302   1.403       .  A
C297        H304   1.084       .  S
C298        C651   1.415       .  A
C299        C300   1.394       .  A
C299        C650   1.415       .  A
C299        N306   1.429       .  S
C300        C653   1.397       .  A
C300        H305   1.085       .  S
C301        C302   1.419       .  A
C301        C652   1.399       .  A
C302        N303   1.435       .  S
N303        O308   1.259       .  A
N303        O307   1.263       .  A
N306        O309   1.262       .  A
N306        O310   1.262       .  A
C311        C312   1.403       .  A
C311        C316   1.396       .  A
C311        H318   1.084       .  S
C312        C313   1.414       .  A
C313        C314   1.398       .  A
C313        N320   1.429       .  S
C314        C315   1.400       .  A
C314        H319   1.084       .  S
C315        C316   1.409       .  A
C316        N317   1.427       .  S
N317        O322   1.262       .  A
N317        O321   1.261       .  A
N320        O323   1.262       .  A
N320        O324   1.262       .  A
C325        C326   1.404       .  A
C325        C330   1.409       .  A
C325        H332   1.084       .  S
C326        C713   1.489       .  S
C326       C1031   1.412       .  A
C327        C328   1.389       .  A
C327       C1030   1.407       .  A
C327        N334   1.424       .  S
C328       C1033   1.399   1_455  A
C328        H333   1.084       .  S
C329        C330   1.417       .  A
C329       C1032   1.397       .  A
C330        N331   1.428       .  S
N331        O336   1.262       .  A
N331        O335   1.262       .  A
N334        O337   1.261       .  A
N334        O338   1.261       .  A
C339        C340   1.403   1_565  A
C339        C344   1.393       .  A
C339        H346   1.084       .  S
C340        C693   1.416       .  A
C341        C342   1.397       .  A
C341        C692   1.420       .  A
C341        N348   1.430       .  S
C342        C695   1.400       .  A
C342        H347   1.084       .  S
C343        C344   1.409       .  A
C343        C694   1.402   1_565  A
C344        N345   1.429       .  S
N345        O350   1.262       .  A
N345        O349   1.262       .  A
N348        O351   1.262       .  A
N348        O704   1.258       .  A
O352        N700   1.259       .  A
C353        H354   1.110       .  S
C353       C1062   1.538       .  S
C353        C709   1.539       .  S
C355        H356   1.111       .  S
C355       C1064   1.539   1_445  S
C357        C705   1.538   1_565  S
C357        C360   1.373       .  D
C357        C622   1.490       .  S
C358       C1057   1.543       .  S
C358       C1065   1.369       .  D
C358        C636   1.486       .  S
C359        C653   1.478       .  S
C360       C1059   1.538   1_565  S
C360        C667   1.479       .  S
C361       C1062   1.366       .  D
C361       C1382   1.478       .  S
C362        C692   1.492       .  S
Zn363       O367   1.943   1_554  S
Zn363       O368   1.992   1_554  S
Zn363       O372   2.003       .  S
Zn363       O379   1.991       .  S
Zn364       O367   1.986       .  S
Zn364       O369   2.092       .  S
Zn364       O371   2.078       .  S
Zn364       O375   2.053       .  S
Zn365       O367   1.950   1_554  S
Zn365       O370   1.970       .  S
Zn365       O373   2.001   1_554  S
Zn365       O376   2.024       .  S
Zn366       O367   1.947   1_554  S
Zn366       O374   1.992       .  S
Zn366       O377   1.983   1_554  S
Zn366       O378   2.040       .  S
O368        C380   1.270       .  A
O369        C381   1.281       .  A
O370        C382   1.267       .  A
O371        C380   1.281       .  A
O372        C382   1.273       .  A
O373        C381   1.271       .  A
O374        C383   1.270       .  A
O375        C384   1.279       .  A
O376        C383   1.273       .  A
O377        C384   1.271       .  A
O378        C385   1.274       .  A
O379        C385   1.268       .  A
C380        C388   1.474       .  S
C381        C435   1.480       .  S
C382        C431   1.446       .  S
C383        C441   1.460       .  S
C384        C423   1.461       .  S
C385        C419   1.465       .  S
C386        C625   1.481       .  S
C386        N387   1.364       .  A
C386        N391   1.365       .  A
N387        C388   1.354       .  A
C388        N389   1.359       .  A
N389        C390   1.360       .  A
C390        C411   1.475       .  S
C390        N391   1.360       .  A
Zn392       O396   1.950       .  S
Zn392       O397   2.030       .  S
Zn392       O401   2.014   1_554  S
Zn392       O408   2.002       .  S
Zn393       O396   1.955       .  S
Zn393       O398   1.995   1_554  S
Zn393       O400   1.973       .  S
Zn393       O404   2.025       .  S
Zn394       O396   1.988   1_556  S
Zn394       O399   2.063       .  S
Zn394       O402   2.072       .  S
Zn394       O405   2.061       .  S
Zn395       O396   1.951       .  S
Zn395       O403   2.006   1_554  S
Zn395       O406   2.009       .  S
Zn395       O407   2.050       .  S
O397        C409   1.276       .  A
O398        C410   1.271       .  A
O399        C411   1.278       .  A
O400        C409   1.267       .  A
O401        C411   1.273       .  A
O402        C410   1.279       .  A
O403        C412   1.274       .  A
O404        C413   1.273       .  A
O405        C412   1.279       .  A
O406        C413   1.272       .  A
O407        C414   1.276       .  A
O408        C414   1.270       .  A
C409        C443   1.456       .  S
C410        C425   1.472       .  S
C412        C437   1.470       .  S
C413        C429   1.463       .  S
C414        C417   1.470       .  S
C415        C611   1.484       .  S
C415        N416   1.365       .  A
C415        N420   1.363       .  A
N416        C417   1.356       .  A
C417        N418   1.354       .  A
N418        C419   1.356       .  A
C419        N420   1.358       .  A
C421        C650   1.476       .  S
C421        N426   1.366   1_545  A
N422        C423   1.353       .  A
N424        C425   1.358   1_545  A
C425        N426   1.359       .  A
C427        C594   1.482       .  S
C427       N1132   1.366       .  A
C427        N432   1.354       .  A
N428       C1131   1.367       .  A
N428        C429   1.357       .  A
C429       N1134   1.349       .  A
N430       C1133   1.352       .  A
N430        C431   1.347       .  A
C431        N432   1.344       .  A
C433        C639   1.501       .  S
C433        N434   1.371       .  A
C433       N1142   1.365       .  A
N434        C435   1.362       .  A
C435        N436   1.357       .  A
N436       C1141   1.356       .  A
C437       N1140   1.356       .  A
C437        N438   1.359       .  A
N438       C1137   1.365       .  A
C439        C580   1.474       .  S
C439        N440   1.363       .  A
N440        C441   1.357       .  A
N442        C443   1.351   1_545  A
C443        N444   1.347       .  A
Zn445       O449   1.951       .  S
Zn445       O450   1.992       .  S
Zn445       O454   2.029       .  S
Zn445       O461   2.007       .  S
Zn446       O449   1.952       .  S
Zn446       O451   1.997       .  S
Zn446       O453   2.027       .  S
Zn446       O457   1.992       .  S
Zn447       O449   1.951       .  S
Zn447       O452   1.990       .  S
Zn447       O455   2.036       .  S
Zn447       O458   1.992       .  S
Zn448       O449   1.992       .  S
Zn448       O456   2.067       .  S
Zn448       O459   2.066       .  S
Zn448       O460   2.075       .  S
O450        C462   1.270       .  A
O451        C463   1.270       .  A
O452        C464   1.270       .  A
O453        C462   1.274       .  A
O454        C464   1.274       .  A
O455        C463   1.274       .  A
O456        C465   1.279       .  A
O457        C466   1.271       .  A
O458        C465   1.270       .  A
O459        C466   1.279       .  A
O460        C467   1.279       .  A
O461        C467   1.272       .  A
C462        C499   1.461       .  S
C463        C470   1.466       .  S
C464        C505   1.460       .  S
C465        C513   1.470       .  S
C466        C517   1.470       .  S
C467        C523   1.476       .  S
C468        C664   1.479       .  S
C468        N469   1.364       .  A
C468        N473   1.359       .  A
N469        C470   1.356       .  A
C470        N471   1.355       .  A
N471        C472   1.355       .  A
C472        C491   1.459       .  S
C472        N473   1.354       .  A
Zn474       O478   1.947       .  S
Zn474       O479   2.027       .  S
Zn474       O483   1.990       .  S
Zn474       O490   2.012       .  S
Zn475       O478   1.955       .  S
Zn475       O480   2.051       .  S
Zn475       O482   1.989       .  S
Zn475       O486   1.997       .  S
Zn476       O478   1.945       .  S
Zn476       O481   2.017       .  S
Zn476       O484   1.995       .  S
Zn476       O487   1.990       .  S
Zn477       O478   1.988       .  S
Zn477       O485   2.057       .  S
Zn477       O488   2.053       .  S
Zn477       O489   2.072       .  S
O479        C491   1.275       .  A
O480        C492   1.276       .  A
O481        C493   1.273       .  A
O482        C491   1.270       .  A
O483        C493   1.270       .  A
O484        C492   1.269       .  A
O485        C494   1.278       .  A
O486        C495   1.272       .  A
O487        C494   1.271       .  A
O488        C495   1.278       .  A
O489        C496   1.278       .  A
O490        C496   1.273       .  A
C492        C507   1.469       .  S
C493        C501   1.457       .  S
C494        C511   1.466       .  S
C495        C519   1.466       .  S
C496        C525   1.478       .  S
C497        C695   1.472       .  S
C497        N498   1.362       .  A
N498        C499   1.354       .  A
C499        N500   1.352       .  A
C501        N502   1.353       .  A
C503        C681   1.484       .  S
C503        N504   1.361       .  A
C503       N1212   1.367       .  A
N504        C505   1.356       .  A
C505       N1210   1.355       .  A
N506       C1209   1.354       .  A
N506        C507   1.353   1_655  A
C507        N508   1.355       .  A
N508       C1207   1.367   1_455  A
C509        C566   1.473       .  S
C509       N1214   1.360       .  A
C509        N514   1.366       .  A
N510       C1213   1.364   1_455  A
N510        C511   1.357       .  A
C511       N1216   1.356   1_455  A
N512       C1215   1.357       .  A
N512        C513   1.355       .  A
C513        N514   1.356       .  A
C515        C555   1.479       .  S
C515        N516   1.365       .  A
C515        N520   1.362       .  A
N516        C517   1.355       .  A
C517        N518   1.357       .  A
N518        C519   1.357       .  A
C519        N520   1.356       .  A
C521        C538   1.501       .  S
C521        N526   1.370       .  A
N522        C523   1.358       .  A
N524        C525   1.355       .  A
C525        N526   1.360       .  A
C527        H528   1.106       .  S
C527        C532   1.537   1_655  S
C527        C883   1.531       .  S
C529        H530   1.105       .  S
C529        C886   1.543   1_455  S
C529        C536   1.537       .  S
C531        C879   1.535       .  S
C531        C583   1.487       .  S
C532        C535   1.375   1_455  D
C532        C597   1.487       .  S
C533        C536   1.366       .  D
C533        C608   1.481       .  S
C534        C881   1.541       .  S
C534        C541   1.490       .  S
C535        C569   1.490       .  S
C536        C552   1.479       .  S
C537        C542   1.413       .  A
C537        H544   1.083       .  S
C538        C539   1.422   1_565  A
C539        C540   1.406       .  A
C539        N546   1.428       .  S
C540        C541   1.400   1_545  A
C540        H545   1.083       .  S
C542        N543   1.440       .  S
N543        O548   1.263       .  A
N546        O549   1.262       .  A
C551        C552   1.401       .  A
C551        C556   1.402       .  A
C551        H558   1.083       .  S
C552        C553   1.408       .  A
C553        C554   1.394       .  A
C553        N560   1.428       .  S
C554        C555   1.403       .  A
C554        H559   1.084       .  S
C555        C556   1.414       .  A
C556        N557   1.428       .  S
N557        O562   1.262       .  A
N557        O561   1.262       .  A
N560        O563   1.261       .  A
N560        O564   1.262       .  A
C565        C566   1.391       .  A
C565        C570   1.395       .  A
C565        H572   1.085       .  S
C566       C1271   1.410       .  A
C567       C1270   1.407   1_455  A
C567        C568   1.396       .  A
C567        N574   1.429       .  S
C568        C569   1.398   1_455  A
C568        H573   1.071       .  S
C569       C1274   1.415       .  A
C570       C1273   1.426       .  A
C570        N571   1.426       .  S
N571        O576   1.263       .  A
N571       O1279   1.258       .  A
N574        O577   1.262       .  A
N574       O1282   1.262       .  A
O575       N1275   1.261       .  A
O578       N1278   1.262       .  A
C579        C584   1.384       .  A
C579        H586   1.085       .  S
C580        C581   1.411       .  A
C581        C582   1.402       .  A
C581        N588   1.430       .  S
C582        C583   1.405       .  A
C582        H587   1.083       .  S
C584        N585   1.420       .  S
N585        O590   1.262       .  A
N585        O589   1.263       .  A
N588        O591   1.262       .  A
N588        O592   1.262       .  A
C593        C594   1.407       .  A
C593        C598   1.403       .  A
C593        H600   1.083       .  S
C594       C1299   1.419       .  A
C595       C1298   1.418   1_655  A
C595        C596   1.402       .  A
C595        N602   1.429       .  S
C596        C597   1.399   1_655  A
C596        H601   1.083       .  S
C597       C1302   1.419       .  A
C598       C1301   1.407       .  A
C598        N599   1.427       .  S
N599        O604   1.261       .  A
N599       O1307   1.262       .  A
N602        O605   1.262       .  A
N602       O1310   1.262       .  A
O603       N1303   1.260       .  A
O606       N1306   1.262       .  A
C607        C608   1.400       .  A
C607        C612   1.404       .  A
C607        H614   1.083       .  S
C608        C609   1.407       .  A
C609        C610   1.394       .  A
C609        N616   1.427       .  S
C610        C611   1.401       .  A
C610        H615   1.084       .  S
C611        C612   1.417       .  A
C612        N613   1.429       .  S
N613        O618   1.262       .  A
N613        O617   1.262       .  A
N616        O619   1.262       .  A
N616        O620   1.262       .  A
C621        C622   1.407       .  A
C621        C626   1.405       .  A
C621        H628   1.083       .  S
C622        C623   1.414       .  A
C623        C624   1.396       .  A
C623        N630   1.430       .  S
C624        C625   1.401       .  A
C624        H629   1.084       .  S
C625        C626   1.410       .  A
C626        N627   1.428       .  S
N627        O632   1.262       .  A
N627        O631   1.262       .  A
N630        O633   1.262       .  A
N630        O634   1.261       .  A
C635       C1340   1.399   1_455  A
C635        C640   1.404       .  A
C635        H642   1.084       .  S
C636       C1339   1.399       .  A
C636        C637   1.408       .  A
C637        C638   1.403       .  A
C637        N644   1.428       .  S
C638        C639   1.408       .  A
C638        H643   1.083       .  S
C639       C1344   1.422       .  A
C640       C1343   1.421       .  A
C640        N641   1.429       .  S
N641        O646   1.262       .  A
N641        O645   1.262       .  A
N644        O647   1.262       .  A
N644        O648   1.262       .  A
C649        C650   1.400   1_565  A
C649        C654   1.402       .  A
C649        H656   1.084       .  S
C651        C652   1.395       .  A
C651        N658   1.429       .  S
C652        H657   1.084       .  S
C653        C654   1.420   1_545  A
C654        N655   1.436       .  S
N655        O660   1.259       .  A
N655        O659   1.263       .  A
N658        O661   1.262       .  A
N658        O662   1.262       .  A
C663        C664   1.402       .  A
C663        C668   1.396       .  A
C663        H670   1.084       .  S
C664        C665   1.413       .  A
C665        C666   1.398       .  A
C665        N672   1.429       .  S
C666        C667   1.401       .  A
C666        H671   1.085       .  S
C667        C668   1.411       .  A
C668        N669   1.427       .  S
N669        O674   1.262       .  A
N669        O673   1.261       .  A
N672        O675   1.262       .  A
N672        O676   1.262       .  A
C677        C678   1.399       .  A
C677        C682   1.402       .  A
C677        H684   1.081       .  S
C678       C1065   1.480       .  S
C678       C1383   1.408       .  A
C679       C1382   1.404   1_455  A
C679        C680   1.389       .  A
C679        N686   1.420       .  S
C680       C1385   1.397   1_455  A
C680        H685   1.084       .  S
C681       C1384   1.400       .  A
C681        C682   1.418       .  A
C682        N683   1.428       .  S
N683        O688   1.262       .  A
N683        O687   1.262       .  A
N686        O689   1.262       .  A
N686        O690   1.261       .  A
C691        C692   1.407       .  A
C691        C696   1.396       .  A
C691        H698   1.083       .  S
C693        C694   1.401       .  A
C693        N700   1.430       .  S
C694        H699   1.084       .  S
C695        C696   1.406       .  A
C696        N697   1.429       .  S
N697        O702   1.262       .  A
N697        O701   1.262       .  A
N700        O703   1.262       .  A
C705        H706   1.108       .  S
C705       C1063   1.544       .  S
C707        H708   1.112       .  S
C707       C1065   1.525       .  S
C707       C1066   1.534       .  S
C709        C712   1.373       .  D
C709        C974   1.484       .  S
C710        C988   1.488   1_455  S
C711       C1057   1.548       .  S
C711       C1066   1.375       .  D
C711       C1005   1.481       .  S
C712       C1019   1.483       .  S
C713       C1059   1.530       .  S
C714       C1059   1.534       .  S
C714       C1063   1.372       .  D
C714       C1044   1.487       .  S
Zn715       O719   1.950       .  S
Zn715       O720   1.993   1_554  S
Zn715       O724   2.032       .  S
Zn715       O731   2.000       .  S
Zn716       O719   1.987   1_556  S
Zn716       O721   2.069       .  S
Zn716       O723   2.054       .  S
Zn716       O727   2.043       .  S
Zn717       O719   1.940       .  S
Zn717       O722   1.975       .  S
Zn717       O725   2.011   1_554  S
Zn717       O728   2.019       .  S
Zn718       O719   1.948       .  S
Zn718       O726   1.983       .  S
Zn718       O729   1.984   1_554  S
Zn718       O730   2.041       .  S
O720        C732   1.272       .  A
O721        C733   1.277       .  A
O722        C734   1.269       .  A
O723        C732   1.278       .  A
O724        C734   1.274       .  A
O725        C733   1.272       .  A
O726        C735   1.269       .  A
O727        C736   1.277       .  A
O728        C735   1.273       .  A
O729        C736   1.270       .  A
O730        C737   1.274       .  A
O731        C737   1.270       .  A
C732        C740   1.466       .  S
C733        C787   1.476       .  S
C734        C783   1.458       .  S
C735        C793   1.456       .  S
C736        C775   1.460       .  S
C737        C771   1.469       .  S
C738        C977   1.483       .  S
C738        N739   1.364       .  A
C738        N743   1.364       .  A
N739        C740   1.352       .  A
C740        N741   1.354       .  A
N741        C742   1.356       .  A
C742        C763   1.465       .  S
C742        N743   1.359       .  A
Zn744       O748   1.951       .  S
Zn744       O749   2.036       .  S
Zn744       O753   1.996   1_554  S
Zn744       O760   2.007       .  S
Zn745       O748   1.948       .  S
Zn745       O750   1.999   1_554  S
Zn745       O752   1.986       .  S
Zn745       O756   2.027       .  S
Zn746       O748   1.994   1_556  S
Zn746       O751   2.046       .  S
Zn746       O754   2.059       .  S
Zn746       O757   2.052       .  S
Zn747       O748   1.950       .  S
Zn747       O755   1.997   1_554  S
Zn747       O758   1.997       .  S
Zn747       O759   2.040       .  S
O749        C761   1.275       .  A
O750        C762   1.271       .  A
O751        C763   1.276       .  A
O752        C761   1.269       .  A
O753        C763   1.272       .  A
O754        C762   1.277       .  A
O755        C764   1.272       .  A
O756        C765   1.274       .  A
O757        C764   1.277       .  A
O758        C765   1.271       .  A
O759        C766   1.275       .  A
O760        C766   1.272       .  A
C761        C795   1.463       .  S
C762        C777   1.470       .  S
C764        C789   1.467       .  S
C765        C781   1.461       .  S
C766        C769   1.470       .  S
C767        C963   1.482       .  S
C767        N768   1.365       .  A
C767        N772   1.364       .  A
N768        C769   1.358       .  A
C769        N770   1.355       .  A
N770        C771   1.355       .  A
C771        N772   1.357       .  A
C773       C1002   1.481       .  S
C773       N1126   1.361       .  A
C773        N778   1.366       .  A
N774       C1125   1.358       .  A
N774        C775   1.350       .  A
C775       N1128   1.356       .  A
N776       C1127   1.355       .  A
N776        C777   1.356       .  A
C777        N778   1.360       .  A
C779        C946   1.480       .  S
C779        N784   1.363   1_455  A
N780        C781   1.354       .  A
N782        C783   1.352       .  A
C783        N784   1.356       .  A
C785        C991   1.495   1_455  S
C785        N786   1.370   1_455  A
N786        C787   1.361       .  A
C787        N788   1.353   1_655  A
C789        N790   1.358       .  A
C791        C932   1.476       .  S
C791        N792   1.362       .  A
C791       N1148   1.361   1_545  A
N792        C793   1.356       .  A
C793       N1146   1.353       .  A
N794       C1145   1.354       .  A
N794        C795   1.354       .  A
C795        N796   1.355       .  A
N796       C1143   1.362       .  A
Zn797       O801   1.949       .  S
Zn797       O802   1.972       .  S
Zn797       O806   2.017       .  S
Zn797       O813   1.993       .  S
Zn798       O801   1.951       .  S
Zn798       O803   2.004       .  S
Zn798       O805   2.042       .  S
Zn798       O809   2.008       .  S
Zn799       O801   1.957       .  S
Zn799       O804   1.990       .  S
Zn799       O807   2.044       .  S
Zn799       O810   2.003       .  S
Zn800       O801   1.998       .  S
Zn800       O808   2.078       .  S
Zn800       O811   2.083       .  S
Zn800       O812   2.075       .  S
O802        C814   1.267       .  A
O803        C815   1.272       .  A
O804        C816   1.270       .  A
O805        C814   1.275       .  A
O806        C816   1.271       .  A
O807        C815   1.274       .  A
O808        C817   1.281       .  A
O809        C818   1.274       .  A
O810        C817   1.273       .  A
O811        C818   1.281       .  A
O812        C819   1.279       .  A
O813        C819   1.271       .  A
C814        C851   1.461       .  S
C815        C822   1.469       .  S
C816        C857   1.457       .  S
C817        C865   1.475       .  S
C818        C869   1.477       .  S
C819        C875   1.473       .  S
C820       C1016   1.490       .  S
C820        N821   1.369       .  A
C820        N825   1.361       .  A
N821        C822   1.360       .  A
C822        N823   1.351       .  A
N823        C824   1.351       .  A
C824        C843   1.456       .  S
C824        N825   1.355       .  A
Zn826       O830   1.946       .  S
Zn826       O831   2.017       .  S
Zn826       O835   1.979       .  S
Zn826       O842   1.998       .  S
Zn827       O830   1.955       .  S
Zn827       O832   2.052       .  S
Zn827       O834   1.988       .  S
Zn827       O838   1.993       .  S
Zn828       O830   1.943       .  S
Zn828       O833   2.015       .  S
Zn828       O836   1.988       .  S
Zn828       O839   1.981       .  S
Zn829       O830   1.997       .  S
Zn829       O837   2.072       .  S
Zn829       O840   2.061       .  S
Zn829       O841   2.092       .  S
O831        C843   1.272       .  A
O832        C844   1.275       .  A
O833        C845   1.272       .  A
O834        C843   1.270       .  A
O835        C845   1.269       .  A
O836        C844   1.268       .  A
O837        C846   1.279       .  A
O838        C847   1.272       .  A
O839        C846   1.270       .  A
O840        C847   1.279       .  A
O841        C848   1.281       .  A
O842        C848   1.271       .  A
C844        C859   1.468       .  S
C845        C853   1.454       .  S
C846        C863   1.469       .  S
C847        C871   1.466       .  S
C848        C877   1.480       .  S
C849       C1047   1.469       .  S
C849        N850   1.363       .  A
C849       N1206   1.361   1_545  A
N850        C851   1.356       .  A
C851        N852   1.354       .  A
N852       C1205   1.352   1_545  A
C853       N1204   1.352       .  A
C853        N854   1.354       .  A
N854       C1201   1.360       .  A
C855       C1033   1.484       .  S
C855        N856   1.362       .  A
N856        C857   1.358       .  A
N858        C859   1.350       .  A
C859        N860   1.356       .  A
C861        C918   1.482       .  S
C861        N866   1.366   1_455  A
N862        C863   1.358       .  A
N864        C865   1.356       .  A
C865        N866   1.355       .  A
C867        C907   1.492       .  S
C867        N868   1.371       .  A
C867        N872   1.363       .  A
N868        C869   1.363       .  A
C869        N870   1.356       .  A
N870        C871   1.354       .  A
C871        N872   1.354       .  A
C873        C890   1.500       .  S
C873       N1226   1.367       .  A
C873        N878   1.371       .  A
N874       C1225   1.366   1_545  A
N874        C875   1.357       .  A
C875       N1228   1.355   1_545  A
N876       C1227   1.355       .  A
N876        C877   1.358       .  A
C877        N878   1.364       .  A
C879        H880   1.110       .  S
C879       C1237   1.530       .  S
C879        C884   1.537       .  S
C881        H882   1.111       .  S
C881       C1239   1.551       .  S
C881        C888   1.548   1_565  S
C883       C1238   1.370       .  D
C883        C935   1.480       .  S
C884        C887   1.373       .  D
C884        C949   1.476       .  S
C885       C1231   1.532   1_545  S
C885        C888   1.377       .  D
C885        C960   1.490       .  S
C886       C1235   1.377       .  D
C886        C893   1.486       .  S
C887       C1233   1.540       .  S
C887        C921   1.496       .  S
C888        C904   1.487       .  S
C889       C1242   1.410       .  A
C889        C894   1.413       .  A
C889        H896   1.082       .  S
C890       C1241   1.410       .  A
C890        C891   1.418       .  A
C891        C892   1.399       .  A
C891        N898   1.429       .  S
C892        C893   1.398       .  A
C892        H897   1.085       .  S
C893       C1246   1.415       .  A
C894       C1245   1.414       .  A
C894        N895   1.435       .  S
N895        O900   1.262       .  A
N895       O1251   1.261       .  A
N898        O901   1.262       .  A
N898       O1254   1.262       .  A
O899       N1247   1.262       .  A
O902       N1250   1.262       .  A
C903        C904   1.398       .  A
C903        C908   1.400       .  A
C903        H910   1.082       .  S
C904        C905   1.410       .  A
C905        C906   1.404       .  A
C905        N912   1.426       .  S
C906        C907   1.404       .  A
C906        H911   1.084       .  S
C907        C908   1.419       .  A
C908        N909   1.429       .  S
N909        O914   1.262       .  A
N909        O913   1.262       .  A
N912        O915   1.262       .  A
N912        O916   1.260       .  A
C917        C918   1.401   1_655  A
C917        C922   1.397       .  A
C917        H924   1.084       .  S
C919        C920   1.404       .  A
C919        N926   1.429       .  S
C920        C921   1.408       .  A
C920        H925   1.082       .  S
C922        N923   1.430       .  S
N923        O928   1.262       .  A
N926        O929   1.262       .  A
C931       C1284   1.396       .  A
C931        C936   1.394       .  A
C931        H938   1.084       .  S
C932       C1283   1.401   1_545  A
C932        C933   1.413       .  A
C933        C934   1.400       .  A
C933        N940   1.429       .  S
C934        C935   1.404   1_545  A
C934        H939   1.083       .  S
C935       C1288   1.409       .  A
C936       C1287   1.415       .  A
C936        N937   1.427       .  S
N937        O942   1.262       .  A
N937        O941   1.261       .  A
N940        O943   1.262       .  A
N940        O944   1.262       .  A
C945        C946   1.404       .  A
C945        C950   1.394       .  A
C945        H952   1.084       .  S
C947        C948   1.399       .  A
C947        N954   1.428       .  S
C948        C949   1.399       .  A
C948        H953   1.084       .  S
C950        N951   1.428       .  S
N951        O956   1.262       .  A
N954        O957   1.262       .  A
C959        C960   1.403       .  A
C959        C964   1.397       .  A
C959        H966   1.082       .  S
C960        C961   1.414       .  A
C961        C962   1.404       .  A
C961        N968   1.431       .  S
C962        C963   1.405       .  A
C962        H967   1.084       .  S
C963        C964   1.409       .  A
C964        N965   1.429       .  S
N965        O970   1.262       .  A
N965        O969   1.262       .  A
N968        O971   1.262       .  A
N968        O972   1.261       .  A
C973        C974   1.405       .  A
C973        C978   1.405       .  A
C973        H980   1.084       .  S
C974        C975   1.412       .  A
C975        C976   1.393       .  A
C975        N982   1.430       .  S
C976        C977   1.402       .  A
C976        H981   1.084       .  S
C977        C978   1.412       .  A
C978        N979   1.428       .  S
N979        O984   1.261       .  A
N979        O983   1.262       .  A
N982        O985   1.262       .  A
N982        O986   1.261   1_655  A
C987        C992   1.407       .  A
C987        H994   1.084       .  S
C988        C989   1.408       .  A
C989        C990   1.401       .  A
C989        N996   1.428       .  S
C990        C991   1.406       .  A
C990        H995   1.083       .  S
C992        N993   1.428       .  S
N993        O998   1.262       .  A
N993        O997   1.262       .  A
N996        O999   1.262   1_545  A
N996       O1000   1.262       .  A
C1001      C1002   1.403       .  A
C1001      C1006   1.406       .  A
C1001      H1008   1.084       .  S
C1002      C1355   1.414       .  A
C1003      C1354   1.415       .  A
C1003      C1004   1.393       .  A
C1003      N1010   1.429       .  S
C1004      C1357   1.397       .  A
C1004      H1009   1.085       .  S
C1005      C1356   1.398       .  A
C1005      C1006   1.420       .  A
C1006      N1007   1.437       .  S
N1007      O1012   1.259       .  A
N1007      O1011   1.263       .  A
N1010      O1013   1.262       .  A
N1010      O1014   1.262       .  A
C1015      C1016   1.404       .  A
C1015      C1020   1.399       .  A
C1015      H1022   1.083       .  S
C1016      C1017   1.418       .  A
C1017      C1018   1.401       .  A
C1017      N1024   1.429       .  S
C1018      C1019   1.400       .  A
C1018      H1023   1.084       .  S
C1019      C1020   1.410       .  A
C1020      N1021   1.427       .  S
N1021      O1026   1.262       .  A
N1021      O1025   1.261       .  A
N1024      O1027   1.262       .  A
N1024      O1028   1.262       .  A
C1029      C1030   1.402   1_655  A
C1029      C1034   1.406       .  A
C1029      H1036   1.084       .  S
C1031      C1032   1.391       .  A
C1031      N1038   1.425       .  S
C1032      H1037   1.084       .  S
C1033      C1034   1.417       .  A
C1034      N1035   1.428       .  S
N1035      O1040   1.262       .  A
N1035      O1039   1.262       .  A
N1038      O1041   1.261       .  A
N1038      O1042   1.261       .  A
C1043      C1044   1.405   1_565  A
C1043      C1048   1.393       .  A
C1043      H1050   1.084       .  S
C1044      C1397   1.418       .  A
C1045      C1396   1.418       .  A
C1045      C1046   1.398       .  A
C1045      N1052   1.430       .  S
C1046      C1399   1.400       .  A
C1046      H1051   1.084       .  S
C1047      C1398   1.401       .  A
C1047      C1048   1.406   1_545  A
C1048      N1049   1.429       .  S
N1049      O1054   1.262       .  A
N1049      O1053   1.262       .  A
N1052      O1055   1.263       .  A
N1052      O1408   1.260       .  A
O1056      N1404   1.260       .  A
C1057      H1058   1.110       .  S
C1059      H1060   1.111       .  S
C1061      C1064   1.377       .  D
C1061      C1326   1.489       .  S
C1062      C1340   1.482       .  S
C1063      C1357   1.479       .  S
C1064      C1371   1.486       .  S
C1066      C1396   1.487       .  S
Zn1067     O1071   1.945       .  S
Zn1067     O1072   2.006   1_554  S
Zn1067     O1076   2.028       .  S
Zn1067     O1083   1.988       .  S
Zn1068     O1071   1.988   1_556  S
Zn1068     O1073   2.076       .  S
Zn1068     O1075   2.069       .  S
Zn1068     O1079   2.051       .  S
Zn1069     O1071   1.942       .  S
Zn1069     O1074   1.970       .  S
Zn1069     O1077   1.999   1_554  S
Zn1069     O1080   2.021       .  S
Zn1070     O1071   1.954       .  S
Zn1070     O1078   1.991       .  S
Zn1070     O1081   1.992   1_554  S
Zn1070     O1082   2.043       .  S
O1072      C1084   1.273       .  A
O1073      C1085   1.279       .  A
O1074      C1086   1.268       .  A
O1075      C1084   1.279       .  A
O1076      C1086   1.274       .  A
O1077      C1085   1.271       .  A
O1078      C1087   1.269       .  A
O1079      C1088   1.278       .  A
O1080      C1087   1.272       .  A
O1081      C1088   1.272       .  A
O1082      C1089   1.274       .  A
O1083      C1089   1.269       .  A
C1084      C1092   1.474       .  S
C1085      C1139   1.475       .  S
C1086      C1135   1.453       .  S
C1087      C1145   1.460       .  S
C1088      C1127   1.463       .  S
C1089      C1123   1.464       .  S
C1090      C1329   1.481       .  S
C1090      N1091   1.367       .  A
C1090      N1095   1.362       .  A
N1091      C1092   1.356       .  A
C1092      N1093   1.356       .  A
N1093      C1094   1.357       .  A
C1094      C1115   1.466       .  S
C1094      N1095   1.357       .  A
Zn1096     O1100   1.945   1_554  S
Zn1096     O1101   2.026       .  S
Zn1096     O1105   1.989   1_554  S
Zn1096     O1112   1.994       .  S
Zn1097     O1100   1.949   1_554  S
Zn1097     O1102   1.988   1_554  S
Zn1097     O1104   1.977       .  S
Zn1097     O1108   2.019       .  S
Zn1098     O1100   1.992       .  S
Zn1098     O1103   2.060       .  S
Zn1098     O1106   2.079       .  S
Zn1098     O1109   2.066       .  S
Zn1099     O1100   1.946   1_554  S
Zn1099     O1107   2.008   1_554  S
Zn1099     O1110   1.982       .  S
Zn1099     O1111   2.041       .  S
O1101      C1113   1.274       .  A
O1102      C1114   1.270       .  A
O1103      C1115   1.278       .  A
O1104      C1113   1.268       .  A
O1105      C1115   1.271       .  A
O1106      C1114   1.280       .  A
O1107      C1116   1.273       .  A
O1108      C1117   1.272       .  A
O1109      C1116   1.279       .  A
O1110      C1117   1.270       .  A
O1111      C1118   1.274       .  A
O1112      C1118   1.270       .  A
C1113      C1147   1.457       .  S
C1114      C1129   1.472       .  S
C1116      C1141   1.473       .  S
C1117      C1133   1.455       .  S
C1118      C1121   1.466       .  S
C1119      C1315   1.485       .  S
C1119      N1120   1.366       .  A
C1119      N1124   1.365       .  A
N1120      C1121   1.356       .  A
C1121      N1122   1.351       .  A
N1122      C1123   1.353       .  A
C1123      N1124   1.359       .  A
C1125      C1354   1.476       .  S
C1125      N1130   1.367   1_545  A
N1126      C1127   1.352       .  A
N1128      C1129   1.358   1_545  A
C1129      N1130   1.359       .  A
C1131      C1298   1.489       .  S
C1131      N1136   1.362   1_455  A
N1132      C1133   1.361       .  A
N1134      C1135   1.351   1_455  A
C1135      N1136   1.355       .  A
C1137      C1343   1.498       .  S
C1137      N1138   1.368   1_455  A
N1138      C1139   1.358       .  A
C1139      N1140   1.356   1_655  A
C1141      N1142   1.358       .  A
C1143      C1284   1.471       .  S
C1143      N1144   1.361       .  A
N1144      C1145   1.356       .  A
N1146      C1147   1.351   1_545  A
C1147      N1148   1.352       .  A
Zn1149     O1153   1.948       .  S
Zn1149     O1154   1.983       .  S
Zn1149     O1158   2.032       .  S
Zn1149     O1165   2.015       .  S
Zn1150     O1153   1.949       .  S
Zn1150     O1155   2.003       .  S
Zn1150     O1157   2.027       .  S
Zn1150     O1161   1.999       .  S
Zn1151     O1153   1.946       .  S
Zn1151     O1156   1.973       .  S
Zn1151     O1159   2.025       .  S
Zn1151     O1162   1.983       .  S
Zn1152     O1153   1.986       .  S
Zn1152     O1160   2.051       .  S
Zn1152     O1163   2.068       .  S
Zn1152     O1164   2.072       .  S
O1154      C1166   1.270       .  A
O1155      C1167   1.271       .  A
O1156      C1168   1.267       .  A
O1157      C1166   1.274       .  A
O1158      C1168   1.274       .  A
O1159      C1167   1.272       .  A
O1160      C1169   1.277       .  A
O1161      C1170   1.272       .  A
O1162      C1169   1.270       .  A
O1163      C1170   1.280       .  A
O1164      C1171   1.279       .  A
O1165      C1171   1.273       .  A
C1166      C1203   1.457       .  S
C1167      C1174   1.464       .  S
C1168      C1209   1.456       .  S
C1169      C1217   1.462       .  S
C1170      C1221   1.472       .  S
C1171      C1227   1.478       .  S
C1172      C1368   1.475       .  S
C1172      N1173   1.364       .  A
C1172      N1177   1.360       .  A
N1173      C1174   1.357       .  A
C1174      N1175   1.353       .  A
N1175      C1176   1.354       .  A
C1176      C1195   1.458       .  S
C1176      N1177   1.354       .  A
Zn1178     O1182   1.948       .  S
Zn1178     O1183   2.026       .  S
Zn1178     O1187   1.999       .  S
Zn1178     O1194   2.018       .  S
Zn1179     O1182   1.951       .  S
Zn1179     O1184   2.053       .  S
Zn1179     O1186   1.983       .  S
Zn1179     O1190   1.994       .  S
Zn1180     O1182   1.948       .  S
Zn1180     O1185   2.015       .  S
Zn1180     O1188   1.996       .  S
Zn1180     O1191   1.973       .  S
Zn1181     O1182   1.991       .  S
Zn1181     O1189   2.056       .  S
Zn1181     O1192   2.058       .  S
Zn1181     O1193   2.072       .  S
O1183      C1195   1.275       .  A
O1184      C1196   1.275       .  A
O1185      C1197   1.272       .  A
O1186      C1195   1.270       .  A
O1187      C1197   1.271       .  A
O1188      C1196   1.269       .  A
O1189      C1198   1.279       .  A
O1190      C1199   1.271       .  A
O1191      C1198   1.269       .  A
O1192      C1199   1.278       .  A
O1193      C1200   1.278       .  A
O1194      C1200   1.274       .  A
C1196      C1211   1.470       .  S
C1197      C1205   1.460       .  S
C1198      C1215   1.460       .  S
C1199      C1223   1.468       .  S
C1200      C1229   1.479       .  S
C1201      C1399   1.465       .  S
C1201      N1202   1.361       .  A
N1202      C1203   1.354       .  A
C1203      N1204   1.352       .  A
C1205      N1206   1.355       .  A
C1207      C1385   1.480       .  S
C1207      N1208   1.359       .  A
N1208      C1209   1.354       .  A
N1210      C1211   1.354       .  A
C1211      N1212   1.356       .  A
C1213      C1270   1.480       .  S
C1213      N1218   1.362       .  A
N1214      C1215   1.354       .  A
N1216      C1217   1.355       .  A
C1217      N1218   1.353       .  A
C1219      C1259   1.480       .  S
C1219      N1220   1.365       .  A
C1219      N1224   1.363       .  A
N1220      C1221   1.355       .  A
C1221      N1222   1.357       .  A
N1222      C1223   1.358       .  A
C1223      N1224   1.357       .  A
C1225      C1242   1.500       .  S
C1225      N1230   1.372       .  A
N1226      C1227   1.358       .  A
N1228      C1229   1.355       .  A
C1229      N1230   1.365       .  A
C1231      H1232   1.110       .  S
C1231      C1236   1.538       .  S
C1233      H1234   1.107       .  S
C1233      C1240   1.541       .  S
C1235      C1287   1.488       .  S
C1236      C1239   1.369       .  D
C1236      C1301   1.473       .  S
C1237      C1240   1.368       .  D
C1237      C1312   1.483       .  S
C1238      C1245   1.495       .  S
C1239      C1273   1.498       .  S
C1240      C1256   1.482       .  S
C1241      C1246   1.412       .  A
C1241      H1248   1.083       .  S
C1242      C1243   1.417   1_565  A
C1243      C1244   1.399       .  A
C1243      N1250   1.429       .  S
C1244      C1245   1.397   1_545  A
C1244      H1249   1.061       .  S
C1246      N1247   1.438       .  S
N1247      O1252   1.262       .  A
N1250      O1253   1.262       .  A
C1255      C1256   1.403       .  A
C1255      C1260   1.403       .  A
C1255      H1262   1.084       .  S
C1256      C1257   1.407       .  A
C1257      C1258   1.394       .  A
C1257      N1264   1.427       .  S
C1258      C1259   1.403       .  A
C1258      H1263   1.084       .  S
C1259      C1260   1.413       .  A
C1260      N1261   1.429       .  S
N1261      O1266   1.262       .  A
N1261      O1265   1.262       .  A
N1264      O1267   1.261       .  A
N1264      O1268   1.262       .  A
C1269      C1270   1.405       .  A
C1269      C1274   1.401       .  A
C1269      H1276   1.084       .  S
C1271      C1272   1.400       .  A
C1271      N1278   1.428       .  S
C1272      C1273   1.405       .  A
C1272      H1277   1.084       .  S
C1274      N1275   1.431       .  S
N1275      O1280   1.262       .  A
N1278      O1281   1.262       .  A
C1283      C1288   1.392       .  A
C1283      H1290   1.084       .  S
C1284      C1285   1.410       .  A
C1285      C1286   1.401       .  A
C1285      N1292   1.429       .  S
C1286      C1287   1.405       .  A
C1286      H1291   1.083       .  S
C1288      N1289   1.427       .  S
N1289      O1294   1.262       .  A
N1289      O1293   1.261       .  A
N1292      O1295   1.262       .  A
N1292      O1296   1.262       .  A
C1297      C1298   1.402       .  A
C1297      C1302   1.396       .  A
C1297      H1304   1.083       .  S
C1299      C1300   1.386       .  A
C1299      N1306   1.431       .  S
C1300      C1301   1.385       .  A
C1300      H1305   1.076       .  S
C1302      N1303   1.433       .  S
N1303      O1308   1.261       .  A
N1306      O1309   1.262       .  A
C1311      C1312   1.401       .  A
C1311      C1316   1.404       .  A
C1311      H1318   1.083       .  S
C1312      C1313   1.407       .  A
C1313      C1314   1.396       .  A
C1313      N1320   1.428       .  S
C1314      C1315   1.403       .  A
C1314      H1319   1.084       .  S
C1315      C1316   1.416       .  A
C1316      N1317   1.428       .  S
N1317      O1322   1.262       .  A
N1317      O1321   1.262       .  A
N1320      O1323   1.262       .  A
N1320      O1324   1.262       .  A
C1325      C1326   1.406       .  A
C1325      C1330   1.404       .  A
C1325      H1332   1.083       .  S
C1326      C1327   1.415       .  A
C1327      C1328   1.396       .  A
C1327      N1334   1.430       .  S
C1328      C1329   1.401       .  A
C1328      H1333   1.084       .  S
C1329      C1330   1.412       .  A
C1330      N1331   1.428       .  S
N1331      O1336   1.262       .  A
N1331      O1335   1.262       .  A
N1334      O1337   1.262       .  A
N1334      O1338   1.262   1_655  A
C1339      C1344   1.405       .  A
C1339      H1346   1.084       .  S
C1340      C1341   1.406       .  A
C1341      C1342   1.400       .  A
C1341      N1348   1.428       .  S
C1342      C1343   1.409   1_655  A
C1342      H1347   1.083       .  S
C1344      N1345   1.428       .  S
N1345      O1350   1.262       .  A
N1345      O1349   1.262       .  A
N1348      O1351   1.261       .  A
N1348      O1352   1.262       .  A
C1353      C1354   1.399   1_565  A
C1353      C1358   1.401       .  A
C1353      H1360   1.084       .  S
C1355      C1356   1.393       .  A
C1355      N1362   1.429       .  S
C1356      H1361   1.085       .  S
C1357      C1358   1.419   1_545  A
C1358      N1359   1.435       .  S
N1359      O1364   1.259       .  A
N1359      O1363   1.263       .  A
N1362      O1365   1.262       .  A
N1362      O1366   1.261       .  A
C1367      C1368   1.400       .  A
C1367      C1372   1.399       .  A
C1367      H1374   1.084       .  S
C1368      C1369   1.409       .  A
C1369      C1370   1.396       .  A
C1369      N1376   1.429       .  S
C1370      C1371   1.404       .  A
C1370      H1375   1.084       .  S
C1371      C1372   1.415       .  A
C1372      N1373   1.427       .  S
N1373      O1378   1.261       .  A
N1373      O1377   1.261       .  A
N1376      O1379   1.262       .  A
N1376      O1380   1.262       .  A
C1381      C1382   1.399       .  A
C1381      C1386   1.403       .  A
C1381      H1388   1.081       .  S
C1383      C1384   1.392       .  A
C1383      N1390   1.425       .  S
C1384      H1389   1.084       .  S
C1385      C1386   1.418       .  A
C1386      N1387   1.429       .  S
N1387      O1392   1.262       .  A
N1387      O1391   1.262       .  A
N1390      O1393   1.261       .  A
N1390      O1394   1.262       .  A
C1395      C1396   1.407       .  A
C1395      C1400   1.392       .  A
C1395      H1402   1.083       .  S
C1397      C1398   1.400       .  A
C1397      N1404   1.431       .  S
C1398      H1403   1.084       .  S
C1399      C1400   1.403       .  A
C1400      N1401   1.429       .  S
N1401      O1406   1.262       .  A
N1401      O1405   1.262       .  A
N1404      O1407   1.262       .  A
