geometry optimzed in LAMMPS
_audit_creation_date              2020-11-30 
_audit_creation_method            'lammps2cif' 
_symmetry_space_group_name_H-M    'P1' 
_symmetry_Int_Tables_number       1 
_symmetry_cell_setting            triclinic 
loop_ 
_symmetry_equiv_pos_as_xyz 
  x,y,z 
_cell_length_a                    26.48817961 
_cell_length_b                    26.714541320273725 
_cell_length_c                    31.76971652686087 
_cell_angle_alpha                 91.50365438901977 
_cell_angle_beta                  89.35915002513968 
_cell_angle_gamma                 89.95211373391898 
loop_ 
_atom_site_label 
_atom_site_type_symbol 
_atom_site_fract_x 
_atom_site_fract_y 
_atom_site_fract_z 
_atom_site_charge 
In1        In  0.50964911  0.50725785  0.99283597     1.36900
C2          C  0.48933632  0.43489301  0.44835952     0.79500
O3          O  0.43085903  0.47754033  0.00387970    -0.59000
O4          O  0.45650136  0.53389784  0.04621237    -0.49900
C5          C  0.59287884  0.50043516  0.04139247     0.72100
O6          O  0.54973479  0.48663481  0.05361744    -0.44700
C7          C  0.50982340  0.58689587  0.45690584     0.76900
O8          O  0.53051217  0.44136118  0.46748164    -0.56600
O9          O  0.46815109  0.57590400  0.47390964    -0.46700
O10         O  0.45536350  0.46607694  0.45847671    -0.53000
C11         C  0.42109458  0.50466830  0.03596712     0.87000
O12         O  0.59355886  0.51628789  0.00439371    -0.54900
O13         O  0.54522033  0.55749603  0.46552403    -0.58200
In14       In  0.25316781  0.46492936  0.17541346     1.36900
C15         C  0.19054369  0.50566108  0.23434158     0.79500
O16         O  0.17949282  0.44836222  0.14350399    -0.59000
O17         O  0.24033069  0.39653842  0.13618977    -0.49900
C18         C  0.31834459  0.51006280  0.12329275     0.72100
O19         O  0.31403992  0.52287782  0.16177968    -0.44700
C20         C  0.30970450  0.40071366  0.21488346     0.76900
O21         O  0.19541103  0.52387934  0.19812940    -0.56600
O22         O  0.26437194  0.39238524  0.20587562    -0.46700
O23         O  0.22174612  0.47151565  0.24149088    -0.53000
C24         C  0.19490535  0.40648645  0.12908268     0.87000
O25         O  0.28502751  0.47975670  0.11082350    -0.54900
O26         O  0.32633029  0.44313045  0.20499196    -0.58200
In27       In  0.94520599  0.74713100  0.05795801     1.36900
C28         C  0.98767018  0.67791302  0.00619143     0.79500
O29         O  0.92800074  0.67938815  0.09605948    -0.59000
O30         O  0.87077245  0.73421765  0.08923721    -0.49900
C31         C  0.98999561  0.81200232  0.11164385     0.72100
O32         O  0.01337971  0.79345786  0.07995097    -0.44700
C33         C  0.89335710  0.80637421  0.00944267     0.76900
O34         O  0.95407730  0.70790911  0.99491921    -0.56600
O35         O  0.87821697  0.76381594  0.01990001    -0.46700
O36         O  0.00350352  0.68632251  0.04307932    -0.53000
C37         C  0.88301011  0.69261468  0.10357406     0.87000
O38         O  0.94630942  0.79461101  0.11673530    -0.54900
O39         O  0.93708743  0.81813587  0.02173032    -0.58200
In40       In  0.76336871  0.94664338  0.44126120     1.36900
C41         C  0.69923103  0.98457538  0.49948571     0.79500
O42         O  0.69084548  0.93333643  0.40605354    -0.59000
O43         O  0.74555118  0.87530704  0.40697471    -0.49900
C44         C  0.82206308  0.98866620  0.38336381     0.72100
O45         O  0.80150089  0.01499503  0.41250848    -0.44700
C46         C  0.83344663  0.90064567  0.48439827     0.76900
O47         O  0.71193448  0.00862053  0.46724617    -0.56600
O48         O  0.79333633  0.88000308  0.47203097    -0.46700
O49         O  0.72177083  0.94337668  0.50288099    -0.53000
C50         C  0.70277825  0.88907439  0.39522441     0.87000
O51         O  0.80951919  0.94334060  0.38297036    -0.54900
O52         O  0.83664268  0.94683740  0.47721291    -0.58200
In53       In  0.74667668  0.53262301  0.19493624     1.36900
C54         C  0.80231941  0.48798474  0.25406178     0.79500
O55         O  0.81585487  0.53640367  0.15377291    -0.59000
O56         O  0.77890635  0.60411282  0.17366648    -0.49900
C57         C  0.68264369  0.49456655  0.13658161     0.72100
O58         O  0.68727413  0.47572152  0.17245730    -0.44700
C59         C  0.69108231  0.60165982  0.23470704     0.76900
O60         O  0.81305284  0.48485494  0.21535828    -0.56600
O61         O  0.73795533  0.60618631  0.22911444    -0.46700
O62         O  0.75947572  0.50665843  0.26169959    -0.53000
C63         C  0.81502520  0.58368358  0.15347241     0.87000
O64         O  0.71402606  0.52862760  0.12948588    -0.54900
O65         O  0.67262785  0.56079698  0.22132799    -0.58200
In66       In  0.03285851  0.25019118  0.06330931     1.36900
C67         C  0.99914333  0.18914562  0.12288273     0.79500
O68         O  0.03561735  0.18011644  0.02271949    -0.59000
O69         O  0.10456248  0.21507788  0.04133622    -0.49900
C70         C  0.99012989  0.30989276  0.00744769     0.72100
O71         O  0.97170112  0.30456801  0.04390600    -0.44700
C72         C  0.08449965  0.32416382  0.09828936     0.76900
O73         O  0.97097921  0.20324968  0.09350732    -0.56600
O74         O  0.10402804  0.29173916  0.07356549    -0.46700
O75         O  0.04185387  0.20980302  0.12349743    -0.53000
C76         C  0.08334703  0.17908720  0.02201529     0.87000
O77         O  0.02583973  0.28030695  0.99833578    -0.54900
O78         O  0.03841454  0.31754181  0.10685817    -0.58200
In79       In  0.00601449  0.99947587  0.24772210     1.36900
C80         C  0.08286144  0.01165239  0.30216862     0.79500
O81         O  0.04923511  0.04768318  0.20344671    -0.59000
O82         O  0.97301498  0.06791265  0.21586660    -0.49900
C83         C  0.99055174  0.92343635  0.19187141     0.72100
O84         O  0.03444618  0.93522960  0.20371083    -0.44700
C85         C  0.93311313  0.98595373  0.30483160     0.76900
O86         O  0.07271635  0.96953543  0.28533676    -0.56600
O87         O  0.93592065  0.02580635  0.28438489    -0.46700
O88         O  0.05406054  0.04638556  0.29117694    -0.53000
C89         C  0.01387093  0.07805504  0.19704659     0.87000
O90         O  0.95630863  0.95105582  0.20737072    -0.54900
O91         O  0.96749870  0.95460311  0.29645865    -0.58200
In92       In  0.00479633  0.48788189  0.36834574     1.36900
C93         C  0.92838089  0.47450162  0.31273620     0.79500
O94         O  0.97381156  0.56426812  0.38662828    -0.59000
O95         O  0.03649155  0.53935692  0.42069273    -0.49900
C96         C  0.99994178  0.40551553  0.41577920     0.72100
O97         O  0.98060919  0.44670418  0.42766779    -0.44700
C98         C  0.09270599  0.49423009  0.32485733     0.76900
O99         O  0.97444108  0.47100298  0.30314227    -0.56600
O100        O  0.05548505  0.52224725  0.31781502    -0.46700
O101        O  0.92052214  0.48371777  0.35139465    -0.53000
C102        C  0.00430847  0.57344307  0.41596362     0.87000
O103        O  0.01968312  0.40620708  0.37962094    -0.54900
O104        O  0.08558856  0.46518102  0.35499108    -0.58200
In105      In  0.53044099  0.75302539  0.31575067     1.36900
C106        C  0.49664360  0.69475533  0.37830269     0.79500
O107        O  0.53380766  0.68274038  0.27593797    -0.59000
O108        O  0.60238519  0.72082656  0.29106308    -0.49900
C109        C  0.48971220  0.81058016  0.25621289     0.72100
O110        O  0.49109108  0.82390484  0.29451286    -0.44700
C111        C  0.58768298  0.82270894  0.35059297     0.76900
O112        O  0.46667182  0.71355648  0.35218692    -0.56600
O113        O  0.60514049  0.78857817  0.32624209    -0.46700
O114        O  0.54140734  0.70920986  0.37403865    -0.53000
C115        C  0.58146499  0.68321720  0.27375302     0.87000
O116        O  0.50237405  0.76567655  0.24941389    -0.54900
O117        O  0.54059487  0.82115510  0.35718108    -0.58200
In118      In  0.45736904  0.26054219  0.31059457     1.36900
C119        C  0.49255563  0.19292370  0.25430531     0.79500
O120        O  0.44196675  0.19074566  0.34727878    -0.59000
O121        O  0.38342231  0.24428998  0.34052757    -0.49900
C122        C  0.49601877  0.32340844  0.36890120     0.72100
O123        O  0.52439373  0.29987562  0.34282779    -0.44700
C124        C  0.41599566  0.32631502  0.26168107     0.76900
O125        O  0.51840515  0.20682388  0.28586230    -0.56600
O126        O  0.39173060  0.29287101  0.28037290    -0.46700
O127        O  0.45120841  0.21563356  0.25096731    -0.53000
C128        C  0.39650039  0.20281832  0.35452882     0.87000
O129        O  0.45016787  0.31219846  0.36603760    -0.54900
O130        O  0.46330695  0.32507863  0.26627338    -0.58200
In131      In  0.49138520  0.99856979  0.12903967     1.36900
C132        C  0.57957353  0.98971897  0.08632569     0.79500
O133        O  0.47955130  0.91875616  0.15269320    -0.59000
O134        O  0.49489883  0.97649172  0.19719984    -0.49900
C135        C  0.48182094  0.08657892  0.17094268     0.72100
O136        O  0.52341096  0.06375201  0.16760028    -0.44700
C137        C  0.42173418  0.99097719  0.06724422     0.76900
O138        O  0.55581475  0.03054332  0.08985933    -0.56600
O139        O  0.46669836  0.00437616  0.06183395    -0.46700
O140        O  0.55960333  0.95442509  0.10622103    -0.53000
C141        C  0.48590182  0.93072409  0.19099657     0.87000
O142        O  0.44598896  0.06549109  0.15158755    -0.54900
O143        O  0.41102014  0.98129305  0.10501279    -0.58200
In144      In  0.25646228  0.04038366  0.44039367     1.36900
C145        C  0.19243114  0.00297761  0.38192731     0.79500
O146        O  0.18169544  0.06529403  0.46765089    -0.59000
O147        O  0.24660006  0.10847424  0.48263067    -0.49900
C148        C  0.31407727  0.99332190  0.49632447     0.72100
O149        O  0.32795043  0.00071689  0.45901981    -0.44700
C150        C  0.32492788  0.09249671  0.39928011     0.76900
O151        O  0.20917750  0.97630752  0.41108592    -0.56600
O152        O  0.28955894  0.11259704  0.42067109    -0.46700
O153        O  0.21157044  0.04598377  0.38122564    -0.53000
C154        C  0.19939460  0.10388514  0.48573020     0.87000
O155        O  0.26803094  0.00276754  0.50330284    -0.54900
O156        O  0.32419728  0.04525579  0.39744828    -0.58200
C157        C  0.38619617  0.98840919  0.03127589    -0.14500
C158        C  0.33563144  0.98404806  0.03478978    -0.29700
H159        H  0.40254062  0.99516327  0.00041156     0.14500
H160        H  0.31834930  0.98028946  0.06570846     0.15100
C161        C  0.36430475  0.12199670  0.37847616    -0.14500
C162        C  0.36026043  0.17185012  0.37714935    -0.29700
H163        H  0.39607126  0.10269872  0.36331952     0.14500
H164        H  0.32703860  0.19056819  0.39048496     0.15100
C165        C  0.47398225  0.13310106  0.19644383    -0.14500
C166        C  0.50740122  0.15149297  0.22466562    -0.29700
H167        H  0.43706457  0.15054090  0.19427616     0.14500
H168        H  0.54378019  0.13343707  0.22832540     0.15100
C169        C  0.47897876  0.84525335  0.22142014    -0.14500
C170        C  0.48472203  0.89522006  0.22639051    -0.29700
H171        H  0.47314688  0.82921290  0.19010008     0.14500
H172        H  0.49263612  0.91074630  0.25757456     0.15100
C173        C  0.12520789  0.02180133  0.33155489    -0.14500
C174        C  0.15206748  0.98699886  0.35196762    -0.29700
H175        H  0.13359605  0.06112230  0.33767380     0.14500
H176        H  0.14262179  0.94758495  0.34842000     0.15100
C177        C  0.16777284  0.14177335  0.50762872    -0.14500
C178        C  0.11229813  0.13874162  0.00065017    -0.29700
H179        H  0.18193464  0.17591962  0.00748761     0.14500
H180        H  0.09918271  0.11731336  0.48083602     0.15100
C181        C  0.00292820  0.36054602  0.44205470    -0.14500
C182        C  0.97965427  0.35582761  0.47971424    -0.29700
H183        H  0.02837734  0.33105007  0.43074497     0.14500
H184        H  0.95322292  0.38436261  0.49114749     0.15100
C185        C  0.98527517  0.14923128  0.15264720    -0.14500
C186        C  0.02198248  0.12206617  0.17035331    -0.29700
H187        H  0.94584252  0.13920775  0.15701341     0.14500
H188        H  0.06117040  0.13078923  0.16304985     0.15100
C189        C  0.61045318  0.64223606  0.25348045    -0.14500
C190        C  0.66099438  0.64191168  0.25462929    -0.29700
H191        H  0.59011928  0.61161806  0.23822441     0.14500
H192        H  0.68118166  0.67291945  0.26947196     0.15100
C193        C  0.83860480  0.47662018  0.28813394    -0.14500
C194        C  0.88844644  0.47078879  0.28007536    -0.29700
H195        H  0.82550412  0.48070623  0.32053214     0.14500
H196        H  0.90133245  0.46789467  0.24754760     0.15100
C197        C  0.66994842  0.85487832  0.37144200    -0.14500
C198        C  0.61985092  0.86104483  0.37046261    -0.29700
H199        H  0.68712345  0.82140772  0.35731676     0.14500
H200        H  0.60212165  0.89287129  0.38669672     0.15100
C201        C  0.85997155  0.00728157  0.35297039    -0.14500
C202        C  0.89282435  0.97421867  0.33528723    -0.29700
H203        H  0.86254665  0.04696764  0.34666382     0.14500
H204        H  0.89118433  0.93529046  0.34444495     0.12700
C205        C  0.64458839  0.01624688  0.03324350    -0.14500
C206        C  0.62561735  0.98203171  0.05978712    -0.29700
H207        H  0.62760882  0.05321836  0.03209012     0.14500
H208        H  0.64219400  0.94480146  0.05976283     0.15100
C209        C  0.87379048  0.87192279  0.50423904    -0.14500
C210        C  0.86042135  0.83925083  0.98605343    -0.29700
H211        H  0.90991801  0.88969019  0.51051890     0.14500
H212        H  0.83059184  0.82111076  0.96808868     0.15100
C213        C  0.85323363  0.61305997  0.13139459    -0.14500
C214        C  0.84674694  0.66230138  0.12670588    -0.29700
H215        H  0.88631481  0.59405749  0.11813484     0.14500
H216        H  0.81239542  0.68063535  0.13822802     0.15100
C217        C  0.02906695  0.63094385  0.47652884    -0.14500
C218        C  0.99990199  0.61967961  0.44288187    -0.29700
H219        H  0.06037612  0.60672486  0.48422192     0.14500
H220        H  0.96815691  0.64386882  0.43625337     0.15100
C221        C  0.01009684  0.85261322  0.13975582    -0.14500
C222        C  0.97758422  0.88048976  0.16353624    -0.29700
H223        H  0.05013442  0.86136299  0.13923764     0.14500
H224        H  0.93746819  0.87224523  0.16156627     0.15100
C225        C  0.11352899  0.36637784  0.11575476    -0.14500
C226        C  0.16293312  0.37010582  0.10718924    -0.29700
H227        H  0.09495159  0.39309973  0.13719126     0.14500
H228        H  0.18174205  0.34179865  0.08741133     0.15100
C229        C  0.33948842  0.36307541  0.23568336    -0.14500
C230        C  0.38993324  0.36447400  0.23775245    -0.29700
H231        H  0.31854481  0.33239670  0.24939404     0.14500
H232        H  0.41142194  0.39421333  0.22326040     0.15100
C233        C  0.14876974  0.51934687  0.26443714    -0.14500
C234        C  0.14009139  0.49228455  0.29919028    -0.29700
H235        H  0.12166213  0.54752515  0.25544947     0.14500
H236        H  0.16715888  0.46362623  0.30733165     0.15100
C237        C  0.51852336  0.63016276  0.42920639    -0.14500
C238        C  0.48226789  0.65666294  0.40989337    -0.29700
H239        H  0.55787003  0.63846853  0.42230642     0.14500
H240        H  0.44270831  0.64759027  0.41470594     0.15100
C241        C  0.47890676  0.39390818  0.41755688    -0.14500
C242        C  0.51329004  0.36240873  0.39970182    -0.29700
H243        H  0.43953834  0.39017770  0.40863904     0.14500
H244        H  0.55320370  0.36650316  0.40644456     0.15100
C245        C  0.63870159  0.50147970  0.06823726    -0.14500
C246        C  0.64110700  0.48152424  0.10686051    -0.29700
H247        H  0.67076270  0.52262284  0.05665444     0.14500
H248        H  0.60978845  0.45935646  0.11839998     0.15100
C249        C  0.37259780  0.50016828  0.05966044    -0.14500
C250        C  0.36171907  0.52520528  0.09618379    -0.29700
H251        H  0.34640981  0.47189107  0.04804140     0.14500
H252        H  0.38829637  0.55248902  0.10875740     0.15100
In253      In  0.49968038  0.50743275  0.50731626     1.36900
C254        C  0.52338025  0.43074615  0.93621308     0.79500
O255        O  0.44359681  0.45898320  0.54029002    -0.59000
O256        O  0.43791247  0.53694009  0.55254336    -0.49900
C257        C  0.57605912  0.51043357  0.56253327     0.72100
O258        O  0.56432834  0.47037460  0.54308521    -0.44700
C259        C  0.50333566  0.59647436  0.95451838     0.76900
O260        O  0.51402432  0.42358457  0.97459817    -0.56600
O261        O  0.47499018  0.56007383  0.94509423    -0.46700
O262        O  0.52659122  0.47626043  0.92734044    -0.53000
C263        C  0.42012529  0.49400695  0.55906025     0.87000
O264        O  0.54853804  0.54720575  0.55424083    -0.54900
O265        O  0.53319570  0.58772476  0.98403201    -0.58200
In266      In  0.24959790  0.45676405  0.69599883     1.36900
C267        C  0.18568437  0.50682772  0.74704502     0.79500
O268        O  0.17759959  0.43498213  0.66358566    -0.59000
O269        O  0.23618739  0.38099834  0.66710930    -0.49900
C270        C  0.31194172  0.49957725  0.64087053     0.72100
O271        O  0.30096851  0.52058115  0.67591140    -0.44700
C272        C  0.30782470  0.40139470  0.74295647     0.76900
O273        O  0.18579152  0.51213218  0.70767595    -0.56600
O274        O  0.26075048  0.39567091  0.74114816    -0.46700
O275        O  0.22232491  0.48184090  0.76027658    -0.53000
C276        C  0.19209878  0.39075490  0.65567057     0.87000
O277        O  0.28723854  0.46032472  0.63293853    -0.54900
O278        O  0.32515427  0.43768134  0.72270345    -0.58200
In279      In  0.97036779  0.73174253  0.56643638     1.36900
C280        C  0.01389678  0.67183711  0.50700670     0.79500
O281        O  0.96884979  0.68455612  0.62465715    -0.59000
O282        O  0.91032878  0.67608616  0.57997370    -0.49900
C283        C  0.00474793  0.80509358  0.61747057     0.72100
O284        O  0.03266070  0.78544493  0.58877226    -0.44700
C285        C  0.90451186  0.79138072  0.53107767     0.76900
O286        O  0.03330832  0.67850408  0.54291812    -0.56600
O287        O  0.89228326  0.75128745  0.54850073    -0.46700
O288        O  0.97726666  0.70037136  0.50040426    -0.53000
C289        C  0.92822304  0.66307218  0.61451615     0.87000
O290        O  0.96205385  0.78483549  0.62108405    -0.54900
O291        O  0.95130504  0.80063596  0.53022304    -0.58200
In292      In  0.74543251  0.96851634  0.93891802     1.36900
C293        C  0.68449303  0.00217857  0.00164482     0.79500
O294        O  0.67708973  0.96838419  0.89688577    -0.59000
O295        O  0.70758533  0.89936827  0.91690820    -0.49900
C296        C  0.80698975  0.00379010  0.87935201     0.72100
O297        O  0.79036189  0.03197606  0.90912543    -0.44700
C298        C  0.81900552  0.91878896  0.97434045     0.76900
O299        O  0.69868924  0.03014369  0.97216301    -0.56600
O300        O  0.78290720  0.89819020  0.95507303    -0.46700
O301        O  0.70498621  0.95964053  0.00061646    -0.53000
C302        C  0.67408629  0.92117501  0.89632701     0.87000
O303        O  0.78856858  0.96041079  0.87868854    -0.54900
O304        O  0.81647555  0.96601202  0.97765725    -0.58200
In305      In  0.75743914  0.52688738  0.69309402     1.36900
C306        C  0.80693588  0.48071660  0.75363982     0.79500
O307        O  0.81221578  0.52693151  0.63847688    -0.59000
O308        O  0.81434114  0.58718969  0.68355783    -0.49900
C309        C  0.68909586  0.49394148  0.63701431     0.72100
O310        O  0.71103408  0.46395516  0.66112676    -0.44700
C311        C  0.70241241  0.59686116  0.73168505     0.76900
O312        O  0.81992446  0.47684691  0.71544140    -0.56600
O313        O  0.74582343  0.60523362  0.71683513    -0.46700
O314        O  0.76446590  0.50074143  0.75983362    -0.53000
C315        C  0.83220617  0.56784726  0.64998108     0.87000
O316        O  0.70419490  0.53842268  0.64074414    -0.54900
O317        O  0.68752071  0.55205371  0.72796420    -0.58200
In318      In  0.03183608  0.25144596  0.56401657     1.36900
C319        C  0.99347194  0.18561195  0.61779804     0.79500
O320        O  0.03917730  0.18485622  0.51970697    -0.59000
O321        O  0.10581668  0.21867421  0.54447272    -0.49900
C322        C  0.99405951  0.31508439  0.50828353     0.72100
O323        O  0.97223552  0.30724941  0.54307186    -0.44700
C324        C  0.08153183  0.31870947  0.60938298     0.76900
O325        O  0.96758920  0.20144376  0.58761575    -0.56600
O326        O  0.10257770  0.28800651  0.58405560    -0.46700
O327        O  0.03570210  0.20651292  0.62168717    -0.53000
C328        C  0.08679551  0.18385680  0.52224270     0.87000
O329        O  0.03171102  0.28734004  0.50095926    -0.54900
O330        O  0.03411651  0.31495650  0.61211707    -0.58200
In331      In  0.99684733  0.99951761  0.74669403     1.36900
C332        C  0.07314544  0.00954932  0.80185485     0.79500
O333        O  0.04209680  0.05032031  0.70599693    -0.59000
O334        O  0.96315765  0.06213072  0.70761535    -0.49900
C335        C  0.98985855  0.92137167  0.69170306     0.72100
O336        O  0.03178155  0.93583985  0.70601129    -0.44700
C337        C  0.91854389  0.99075379  0.80058602     0.76900
O338        O  0.06278111  0.96802715  0.78415642    -0.56600
O339        O  0.92896552  0.03178087  0.78369879    -0.46700
O340        O  0.04396715  0.04461465  0.79225179    -0.53000
C341        C  0.00552885  0.07591732  0.69361408     0.87000
O342        O  0.95292997  0.94746363  0.70445553    -0.54900
O343        O  0.94845307  0.95563025  0.79065895    -0.58200
In344      In  0.99910288  0.48874114  0.87408397     1.36900
C345        C  0.92844816  0.47006679  0.81593312     0.79500
O346        O  0.01800152  0.54085200  0.92963162    -0.59000
O347        O  0.96521263  0.56548495  0.88538371    -0.49900
C348        C  0.99596917  0.40368437  0.91775094     0.72100
O349        O  0.97076706  0.44200310  0.92877109    -0.44700
C350        C  0.08869666  0.50308855  0.83634058     0.76900
O351        O  0.97507683  0.46894658  0.80807191    -0.56600
O352        O  0.04825321  0.52115029  0.82264186    -0.46700
O353        O  0.91741770  0.47941786  0.85407661    -0.53000
C354        C  0.98875649  0.57527463  0.91876477     0.87000
O355        O  0.02123502  0.40864654  0.88435333    -0.54900
O356        O  0.08356383  0.47989398  0.87016824    -0.58200
In357      In  0.53908059  0.74906749  0.80924225     1.36900
C358        C  0.49280316  0.69508406  0.86874257     0.79500
O359        O  0.54444525  0.67242740  0.77876549    -0.59000
O360        O  0.61128889  0.71600481  0.78537233    -0.49900
C361        C  0.50423985  0.80557636  0.74672838     0.72100
O362        O  0.49288348  0.81456950  0.78490847    -0.44700
C363        C  0.60327910  0.81136268  0.84607917     0.76900
O364        O  0.47355841  0.70109824  0.83302624    -0.56600
O365        O  0.61579272  0.76914335  0.83082616    -0.46700
O366        O  0.53046625  0.72249850  0.87568092    -0.53000
C367        C  0.59169990  0.67493861  0.77380308     0.87000
O368        O  0.52821681  0.76543726  0.74059563    -0.54900
O369        O  0.55701662  0.82230127  0.84298818    -0.58200
In370      In  0.46675954  0.24976278  0.81526817     1.36900
C371        C  0.50212391  0.18647176  0.75423980     0.79500
O372        O  0.44258999  0.17665935  0.84257668    -0.59000
O373        O  0.39342718  0.23953130  0.84895527    -0.49900
C374        C  0.51321306  0.30458657  0.87537375     0.72100
O375        O  0.49715303  0.26103641  0.88166048    -0.44700
C376        C  0.41728732  0.32106252  0.77740846     0.76900
O377        O  0.52922321  0.20121153  0.78472904    -0.56600
O378        O  0.39644106  0.29049208  0.80163581    -0.46700
O379        O  0.45899062  0.20619484  0.75415083    -0.53000
C380        C  0.40057464  0.19380376  0.85546843     0.87000
O381        O  0.51355386  0.31608501  0.83721234    -0.54900
O382        O  0.46399583  0.31426351  0.77119331    -0.58200
In383      In  0.50484872  0.99537875  0.62363268     1.36900
C384        C  0.59446731  0.98153647  0.58428072     0.79500
O385        O  0.49436303  0.91490192  0.64508881    -0.59000
O386        O  0.49973408  0.97261086  0.69151090    -0.49900
C387        C  0.49434528  0.08290371  0.66706299     0.72100
O388        O  0.53602786  0.06001071  0.66416329    -0.44700
C389        C  0.43614954  0.99023155  0.56115888     0.76900
O390        O  0.57228818  0.02331484  0.58587882    -0.56600
O391        O  0.47990024  0.00771214  0.55693911    -0.46700
O392        O  0.57237172  0.94796664  0.60460808    -0.53000
C393        C  0.49462385  0.92647501  0.68389438     0.87000
O394        O  0.45934791  0.06234125  0.64631482    -0.54900
O395        O  0.42679877  0.97484180  0.59761419    -0.58200
In396      In  0.25049462  0.03615980  0.93557250     1.36900
C397        C  0.18595908  0.99851668  0.87771193     0.79500
O398        O  0.17756218  0.05963852  0.96697966    -0.59000
O399        O  0.23822958  0.11180884  0.96447351    -0.49900
C400        C  0.30258042  0.99473289  0.99839838     0.72100
O401        O  0.31745807  0.99287464  0.96055815    -0.44700
C402        C  0.32199427  0.08489719  0.89501296     0.76900
O403        O  0.20258317  0.97200386  0.90696905    -0.56600
O404        O  0.28786354  0.10626945  0.91682921    -0.46700
O405        O  0.20578741  0.04111629  0.87639615    -0.53000
C406        C  0.19327223  0.10337234  0.97538806     0.87000
O407        O  0.25823246  0.01095762  0.00310078    -0.54900
O408        O  0.31903866  0.03765777  0.89275864    -0.58200
C409        C  0.39968242  0.98995811  0.52591786    -0.14500
C410        C  0.34989707  0.98015446  0.53010667    -0.29700
H411        H  0.41391220  0.00308330  0.49593701     0.14500
H412        H  0.33469861  0.96958222  0.56049298     0.15100
C413        C  0.36234572  0.11334118  0.87439226    -0.14500
C414        C  0.36199241  0.16357416  0.87621059    -0.29700
H415        H  0.39223377  0.09311010  0.85748935     0.14500
H416        H  0.33107850  0.18355988  0.89201170     0.15100
C417        C  0.48510315  0.12849183  0.69392181    -0.14500
C418        C  0.51799589  0.14725184  0.72249834    -0.29700
H419        H  0.44746335  0.14460990  0.69258934     0.14500
H420        H  0.55533940  0.13077276  0.72493683     0.15100
C421        C  0.49455988  0.84013185  0.71180200    -0.14500
C422        C  0.49100081  0.88998768  0.71835390    -0.29700
H423        H  0.49828287  0.82520266  0.67975510     0.14500
H424        H  0.49030643  0.90504244  0.75048665     0.15100
C425        C  0.11638617  0.01870770  0.83042044    -0.14500
C426        C  0.14465987  0.98319390  0.84856108    -0.29700
H427        H  0.12457604  0.05784941  0.83766045     0.14500
H428        H  0.13555212  0.94380550  0.84402973     0.15100
C429        C  0.16252713  0.14235922  0.99635570    -0.14500
C430        C  0.11776942  0.14453331  0.50141468    -0.29700
H431        H  0.18647621  0.16956873  0.52759444     0.14500
H432        H  0.09235497  0.10615507  0.98821365     0.15100
C433        C  0.99895098  0.35730781  0.94224329    -0.14500
C434        C  0.97476717  0.35058682  0.97923851    -0.29700
H435        H  0.02584481  0.32920384  0.93085572     0.14500
H436        H  0.94792547  0.37844448  0.99111107     0.15100
C437        C  0.97803935  0.14417391  0.64547608    -0.14500
C438        C  0.01397208  0.11892148  0.66601058    -0.29700
H439        H  0.93871630  0.13276747  0.64722451     0.14500
H440        H  0.05328231  0.12958320  0.66165390     0.15100
C441        C  0.62171238  0.63298172  0.75621573    -0.14500
C442        C  0.67181742  0.63713131  0.75107039    -0.29700
H443        H  0.60244817  0.59860673  0.74699364     0.14500
H444        H  0.69072384  0.67206935  0.75922103     0.15100
C445        C  0.84093687  0.46925506  0.78875749    -0.14500
C446        C  0.89090141  0.46390620  0.78208484    -0.29700
H447        H  0.82637599  0.47410611  0.82069495     0.14500
H448        H  0.90546011  0.46069134  0.75002476     0.15100
C449        C  0.63468637  0.89289260  0.87377064    -0.14500
C450        C  0.64078073  0.84356241  0.86668546    -0.29700
H451        H  0.60127509  0.91212173  0.86297831     0.14500
H452        H  0.67576558  0.82557579  0.87561090     0.15100
C453        C  0.84707693  0.01830541  0.84887031    -0.14500
C454        C  0.87485774  0.98224254  0.82900390    -0.29700
H455        H  0.85626463  0.05755853  0.84515179     0.14500
H456        H  0.86669940  0.94325829  0.83533798     0.12700
C457        C  0.65905931  0.00159411  0.52955132    -0.14500
C458        C  0.64103341  0.97099632  0.55932140    -0.29700
H459        H  0.64101450  0.03747664  0.52470250     0.14500
H460        H  0.65817709  0.93439431  0.56282324     0.15100
C461        C  0.86037142  0.88919333  0.99170091    -0.14500
C462        C  0.86603953  0.82368509  0.51313827    -0.29700
H463        H  0.88878076  0.90768843  0.01096441     0.14500
H464        H  0.82910182  0.80700579  0.50810989     0.15100
C465        C  0.87084169  0.59294192  0.62470403    -0.14500
C466        C  0.90158128  0.62777877  0.64156389    -0.29700
H467        H  0.87121643  0.58557590  0.59087105     0.14500
H468        H  0.90378590  0.63323364  0.67553482     0.15100
C469        C  0.00420722  0.63439094  0.97945624    -0.14500
C470        C  0.98070771  0.62274104  0.94306001    -0.29700
H471        H  0.03254445  0.60927688  0.99156652     0.14500
H472        H  0.95199411  0.64785880  0.93150328     0.15100
C473        C  0.01887989  0.84947578  0.64412738    -0.14500
C474        C  0.98222397  0.87684155  0.66369845    -0.29700
H475        H  0.05822787  0.86055575  0.64654488     0.14500
H476        H  0.94304622  0.86614264  0.65888890     0.15100
C477        C  0.11053505  0.35636393  0.63319681    -0.14500
C478        C  0.16096876  0.35301203  0.63436748    -0.29700
H479        H  0.09072957  0.38692143  0.64948378     0.14500
H480        H  0.18025809  0.32085167  0.61998163     0.15100
C481        C  0.33927761  0.36646269  0.76569415    -0.14500
C482        C  0.38888839  0.36136810  0.75791450    -0.29700
H483        H  0.32005820  0.34107462  0.78666705     0.14500
H484        H  0.40816760  0.38561695  0.73605299     0.15100
C485        C  0.14283766  0.52293590  0.77457074    -0.14500
C486        C  0.13770161  0.50499595  0.81363725    -0.29700
H487        H  0.11140517  0.54212260  0.76027534     0.14500
H488        H  0.16883516  0.48464307  0.82725874     0.15100
C489        C  0.50495976  0.64457900  0.93191788    -0.14500
C490        C  0.47707547  0.65484248  0.89779287    -0.29700
H491        H  0.53464730  0.67046147  0.94127165     0.14500
H492        H  0.44764531  0.62907600  0.88770786     0.15100
C493        C  0.52763408  0.39054643  0.90306503    -0.14500
C494        C  0.52419503  0.34109645  0.91030279    -0.29700
H495        H  0.52921841  0.40278712  0.87074825     0.14500
H496        H  0.52166629  0.32839557  0.94244178     0.15100
C497        C  0.61877822  0.51667178  0.59190623    -0.14500
C498        C  0.64777780  0.48001594  0.60747231    -0.29700
H499        H  0.62621284  0.55520650  0.60182672     0.14500
H500        H  0.64021269  0.44089577  0.59975254     0.15100
C501        C  0.37528809  0.48363275  0.58553556    -0.14500
C502        C  0.35305441  0.51671991  0.61262393    -0.29700
H503        H  0.36136446  0.44537691  0.58387982     0.14500
H504        H  0.36807078  0.55431224  0.61668100     0.15100
loop_ 
_geom_bond_atom_site_label_1 
_geom_bond_atom_site_label_2 
_geom_bond_distance 
_geom_bond_site_symmetry_2 
_ccdc_geom_bond_type 
In1           O3   2.261   1_556  S
In1           O4   2.290   1_556  S
In1          O12   2.269   1_556  S
In1           O6   2.294   1_556  S
In1         O260   2.297       .  S
In1         O261   2.297       .  S
In1         O262   2.259       .  S
In1         O265   2.262       .  S
C2            O8   1.264       .  A
C2           O10   1.259       .  A
C2          C241   1.478       .  S
O3           C11   1.259       .  A
O4           C11   1.261       .  A
C5           O12   1.260       .  A
C5            O6   1.261       .  A
C5          C245   1.491       .  S
C7            O9   1.262       .  A
C7           O13   1.260       .  A
C7          C237   1.488       .  S
O8         In253   2.289       .  S
O9         In253   2.300       .  S
O10        In253   2.227       .  S
C11         C249   1.488       .  S
O13        In253   2.251       .  S
In14         O16   2.248       .  S
In14         O17   2.213       .  S
In14         O25   2.255       .  S
In14         O19   2.282       .  S
In14         O21   2.292       .  S
In14         O22   2.210       .  S
In14         O23   2.252       .  S
In14         O26   2.246       .  S
C15          O21   1.266       .  A
C15          O23   1.257       .  A
C15         C233   1.493       .  S
O16          C24   1.263       .  A
O17          C24   1.256       .  A
C18          O25   1.258       .  A
C18          O19   1.265       .  A
C18         C250   1.491       .  S
C20          O22   1.256       .  A
C20          O26   1.262       .  A
C20         C229   1.454       .  S
C24         C226   1.458       .  S
In27         O29   2.248       .  S
In27         O30   2.229       .  S
In27         O38   2.230       .  S
In27         O32   2.295   1_655  S
In27         O34   2.246   1_554  S
In27         O35   2.210       .  S
In27         O36   2.277   1_655  S
In27         O39   2.256       .  S
C28          O34   1.258   1_554  A
C28          O36   1.264   1_655  A
C28         C469   1.485   1_654  S
O29          C37   1.261       .  A
O30          C37   1.256       .  A
C31          O38   1.258       .  A
C31          O32   1.266   1_655  A
C31         C221   1.490   1_655  S
C33          O35   1.258       .  A
C33          O39   1.264       .  A
C33         C210   1.460   1_554  S
C37         C214   1.461       .  S
In40         O42   2.257       .  S
In40         O43   2.224       .  S
In40         O51   2.207       .  S
In40         O45   2.293   1_565  S
In40         O47   2.276   1_565  S
In40         O48   2.205       .  S
In40         O49   2.239       .  S
In40         O52   2.263       .  S
C41          O47   1.266   1_565  A
C41          O49   1.259       .  A
C41         C457   1.485   1_565  S
O42          C50   1.262       .  A
O43          C50   1.255       .  A
C44          O51   1.256       .  A
C44          O45   1.266   1_565  A
C44         C201   1.481   1_565  S
C46          O48   1.259       .  A
C46          O52   1.264       .  A
C46         C209   1.472       .  S
C50         C197   1.463       .  S
In53         O55   2.243       .  S
In53         O56   2.211       .  S
In53         O64   2.261       .  S
In53         O58   2.295       .  S
In53         O60   2.282       .  S
In53         O61   2.231       .  S
In53         O62   2.278       .  S
In53         O65   2.246       .  S
C54          O60   1.260       .  A
C54          O62   1.258       .  A
C54         C193   1.493       .  S
O55          C63   1.264       .  A
O56          C63   1.262       .  A
C57          O64   1.256       .  A
C57          O58   1.265       .  A
C57         C246   1.493       .  S
C59          O61   1.259       .  A
C59          O65   1.262       .  A
C59         C190   1.464       .  S
C63         C213   1.465       .  S
In66         O68   2.246       .  S
In66         O69   2.215       .  S
In66         O77   2.245   1_554  S
In66         O71   2.276   1_455  S
In66         O73   2.283   1_455  S
In66         O74   2.211       .  S
In66         O75   2.235       .  S
In66         O78   2.247       .  S
C67          O73   1.266       .  A
C67          O75   1.259   1_655  A
C67         C185   1.487       .  S
O68          C76   1.264       .  A
O69          C76   1.263       .  A
C70          O77   1.258   1_654  A
C70          O71   1.263       .  A
C70         C434   1.486   1_554  S
C72          O74   1.261       .  A
C72          O78   1.261       .  A
C72         C225   1.466       .  S
C76         C178   1.469       .  S
In79         O81   2.238   1_565  S
In79         O82   2.290   1_465  S
In79         O90   2.237   1_455  S
In79         O84   2.306       .  S
In79         O86   2.299       .  S
In79         O87   2.281   1_465  S
In79         O88   2.247   1_565  S
In79         O91   2.222   1_455  S
C80          O86   1.263   1_545  A
C80          O88   1.260       .  A
C80         C173   1.488       .  S
O81          C89   1.260       .  A
O82          C89   1.264   1_655  A
C83          O90   1.257       .  A
C83          O84   1.264   1_655  A
C83         C222   1.483       .  S
C85          O87   1.263   1_565  A
C85          O91   1.258       .  A
C85         C202   1.472       .  S
C89         C186   1.482       .  S
In92         O94   2.258   1_455  S
In92         O95   2.297       .  S
In92        O103   2.255       .  S
In92         O97   2.292   1_455  S
In92         O99   2.265   1_455  S
In92        O100   2.292       .  S
In92        O101   2.304   1_455  S
In92        O104   2.256       .  S
C93          O99   1.257       .  A
C93         O101   1.261       .  A
C93         C194   1.492       .  S
O94         C102   1.260   1_655  A
O95         C102   1.260       .  A
C96         O103   1.257   1_655  A
C96          O97   1.260       .  A
C96         C181   1.483   1_655  S
C98         O100   1.263       .  A
C98         O104   1.261       .  A
C98         C234   1.489       .  S
C102        C218   1.488   1_455  S
In105       O107   2.237       .  S
In105       O108   2.217       .  S
In105       O116   2.276       .  S
In105       O110   2.282       .  S
In105       O112   2.308       .  S
In105       O113   2.220       .  S
In105       O114   2.238       .  S
In105       O117   2.236       .  S
C106        O112   1.268       .  A
C106        O114   1.254       .  A
C106        C238   1.494       .  S
O107        C115   1.264       .  A
O108        C115   1.264       .  A
C109        O116   1.258       .  A
C109        O110   1.260       .  A
C109        C169   1.490       .  S
C111        O113   1.264       .  A
C111        O117   1.263       .  A
C111        C198   1.467       .  S
C115        C189   1.467       .  S
In118       O120   2.260       .  S
In118       O121   2.216       .  S
In118       O129   2.215       .  S
In118       O123   2.300       .  S
In118       O125   2.280       .  S
In118       O126   2.184       .  S
In118       O127   2.223       .  S
In118       O130   2.259       .  S
C119        O125   1.268       .  A
C119        O127   1.258       .  A
C119        C166   1.484       .  S
O120        C128   1.264       .  A
O121        C128   1.255       .  A
C122        O129   1.255       .  A
C122        O123   1.267       .  A
C122        C242   1.486       .  S
C124        O126   1.259       .  A
C124        O130   1.264       .  A
C124        C230   1.465       .  S
C128        C162   1.463       .  S
In131       O133   2.300       .  S
In131       O134   2.262       .  S
In131       O142   2.251   1_565  S
In131       O136   2.273   1_565  S
In131       O138   2.281   1_565  S
In131       O139   2.249   1_565  S
In131       O140   2.259       .  S
In131       O143   2.312       .  S
C132        O138   1.261   1_565  A
C132        O140   1.262       .  A
C132        C206   1.486       .  S
O133        C141   1.263       .  A
O134        C141   1.257       .  A
C135        O142   1.262       .  A
C135        O136   1.261       .  A
C135        C165   1.479       .  S
C137        O139   1.255   1_565  A
C137        O143   1.263       .  A
C137        C157   1.489       .  S
C141        C170   1.490       .  S
In144       O146   2.246       .  S
In144       O147   2.245       .  S
In144       O155   2.284       .  S
In144       O149   2.261       .  S
In144       O151   2.305   1_545  S
In144       O152   2.222       .  S
In144       O153   2.244       .  S
In144       O156   2.248       .  S
C145        O151   1.267   1_545  A
C145        O153   1.257       .  A
C145        C174   1.494   1_545  S
O146        C154   1.260       .  A
O147        C154   1.259       .  A
C148        O155   1.261   1_565  A
C148        O149   1.258   1_565  A
C148        C410   1.489       .  S
C150        O152   1.262       .  A
C150        O156   1.262       .  A
C150        C161   1.469       .  S
C154        C177   1.469       .  S
C157        C158   1.348       .  D
C157        H159   1.087       .  S
C158        C400   1.491   1_554  S
C158        H160   1.086       .  S
C161        C162   1.338       .  D
C161        H163   1.088       .  S
C162        H164   1.088       .  S
C165        C166   1.351       .  D
C165        H167   1.087       .  S
C166        H168   1.086       .  S
C169        C170   1.349       .  D
C169        H171   1.086       .  S
C170        H172   1.087       .  S
C173        C174   1.354   1_545  D
C173        H175   1.087       .  S
C174        H176   1.086       .  S
C177        C430   1.344       .  D
C177        H431   1.087       .  S
C178        C429   1.340   1_554  D
C178        H432   1.086   1_554  S
H179        C429   1.087   1_554  S
H180        C430   1.087       .  S
C181        C182   1.349   1_455  D
C181        H183   1.088       .  S
C182        C322   1.488       .  S
C182        H184   1.087       .  S
C185        C186   1.349   1_655  D
C185        H187   1.087       .  S
C186        H188   1.088       .  S
C189        C190   1.340       .  D
C189        H191   1.086       .  S
C190        H192   1.086       .  S
C193        C194   1.350       .  D
C193        H195   1.085       .  S
C194        H196   1.085       .  S
C197        C198   1.338       .  D
C197        H199   1.087       .  S
C198        H200   1.086       .  S
C201        C202   1.347   1_545  D
C201        H203   1.086       .  S
C202        H204   1.088       .  S
C205        C293   1.491       .  S
C205        C206   1.353   1_545  D
C205        H207   1.087       .  S
C206        H208   1.087       .  S
C209        C462   1.342       .  D
C209        H211   1.087       .  S
C210        C461   1.342       .  D
C210        H212   1.087       .  S
C213        C214   1.339       .  D
C213        H215   1.088       .  S
C214        H216   1.088       .  S
C217        C280   1.492       .  S
C217        C218   1.354   1_455  D
C217        H219   1.085       .  S
C218        H220   1.086       .  S
C221        C222   1.350   1_455  D
C221        H223   1.086       .  S
C222        H224   1.088       .  S
C225        C226   1.338       .  D
C225        H227   1.087       .  S
C226        H228   1.087       .  S
C229        C230   1.339       .  D
C229        H231   1.088       .  S
C230        H232   1.087       .  S
C233        C234   1.353       .  D
C233        H235   1.086       .  S
C234        H236   1.087       .  S
C237        C238   1.355       .  D
C237        H239   1.087       .  S
C238        H240   1.086       .  S
C241        C242   1.350       .  D
C241        H243   1.088       .  S
C242        H244   1.086       .  S
C245        C246   1.353       .  D
C245        H247   1.086       .  S
C246        H248   1.086       .  S
C249        C250   1.352       .  D
C249        H251   1.086       .  S
C250        H252   1.085       .  S
In253       O255   2.240       .  S
In253       O256   2.291       .  S
In253       O264   2.233       .  S
In253       O258   2.303       .  S
C254        O260   1.261       .  A
C254        O262   1.258       .  A
C254        C493   1.488       .  S
O255        C263   1.257       .  A
O256        C263   1.262       .  A
C257        O264   1.258       .  A
C257        O258   1.262       .  A
C257        C497   1.481       .  S
C259        O261   1.261       .  A
C259        O265   1.260       .  A
C259        C489   1.489       .  S
C263        C501   1.478       .  S
In266       O268   2.247       .  S
In266       O269   2.231       .  S
In266       O277   2.232       .  S
In266       O271   2.282       .  S
In266       O273   2.266       .  S
In266       O274   2.223       .  S
In266       O275   2.244       .  S
In266       O278   2.246       .  S
C267        O273   1.262       .  A
C267        O275   1.260       .  A
C267        C485   1.482       .  S
O268        C276   1.260       .  A
O269        C276   1.256       .  A
C270        O277   1.258       .  A
C270        O271   1.264       .  A
C270        C502   1.484       .  S
C272        O274   1.258       .  A
C272        O278   1.261       .  A
C272        C481   1.461       .  S
C276        C478   1.460       .  S
In279       O281   2.266       .  S
In279       O282   2.224       .  S
In279       O290   2.222       .  S
In279       O284   2.294   1_655  S
In279       O286   2.296   1_655  S
In279       O287   2.217       .  S
In279       O288   2.244       .  S
In279       O291   2.256       .  S
C280        O286   1.265       .  A
C280        O288   1.256   1_455  A
O281        C289   1.261       .  A
O282        C289   1.257       .  A
C283        O290   1.260   1_455  A
C283        O284   1.270       .  A
C283        C473   1.489       .  S
C285        O287   1.259       .  A
C285        O291   1.264       .  A
C285        C462   1.465       .  S
C289        C466   1.468       .  S
In292       O294   2.261       .  S
In292       O295   2.204       .  S
In292       O303   2.223       .  S
In292       O297   2.291   1_565  S
In292       O299   2.288   1_565  S
In292       O300   2.199       .  S
In292       O301   2.241   1_556  S
In292       O304   2.262       .  S
C293        O299   1.267   1_554  A
C293        O301   1.258   1_545  A
O294        C302   1.263       .  A
O295        C302   1.260       .  A
C296        O303   1.258   1_545  A
C296        O297   1.268       .  A
C296        C453   1.488       .  S
C298        O300   1.260       .  A
C298        O304   1.265       .  A
C298        C461   1.471       .  S
C302        C449   1.471       .  S
In305       O307   2.249       .  S
In305       O308   2.231       .  S
In305       O316   2.220       .  S
In305       O310   2.304       .  S
In305       O312   2.259       .  S
In305       O313   2.226       .  S
In305       O314   2.259       .  S
In305       O317   2.241       .  S
C306        O312   1.259       .  A
C306        O314   1.257       .  A
C306        C445   1.480       .  S
O307        C315   1.262       .  A
O308        C315   1.260       .  A
C309        O316   1.257       .  A
C309        O310   1.268       .  A
C309        C498   1.491       .  S
C311        O313   1.260       .  A
C311        O317   1.264       .  A
C311        C442   1.465       .  S
C315        C465   1.467       .  S
In318       O320   2.246       .  S
In318       O321   2.221       .  S
In318       O329   2.244       .  S
In318       O323   2.287   1_455  S
In318       O325   2.296   1_455  S
In318       O326   2.206       .  S
In318       O327   2.220       .  S
In318       O330   2.255       .  S
C319        O325   1.266       .  A
C319        O327   1.257   1_655  A
C319        C437   1.486       .  S
O320        C328   1.265       .  A
O321        C328   1.262       .  A
C322        O329   1.258   1_655  A
C322        O323   1.264       .  A
C324        O326   1.259       .  A
C324        O330   1.262       .  A
C324        C477   1.466       .  S
C328        C430   1.471       .  S
In331       O333   2.238   1_665  S
In331       O334   2.295   1_565  S
In331       O342   2.242       .  S
In331       O336   2.297   1_655  S
In331       O338   2.296   1_655  S
In331       O339   2.292   1_565  S
In331       O340   2.248   1_665  S
In331       O343   2.240       .  S
C332        O338   1.262   1_545  A
C332        O340   1.260       .  A
C332        C425   1.486       .  S
O333        C341   1.258       .  A
O334        C341   1.261   1_655  A
C335        O342   1.258       .  A
C335        O336   1.262   1_655  A
C335        C474   1.482       .  S
C337        O339   1.262   1_565  A
C337        O343   1.259       .  A
C337        C454   1.481       .  S
C341        C438   1.479       .  S
In344       O346   2.279   1_655  S
In344       O347   2.256       .  S
In344       O355   2.251   1_655  S
In344       O349   2.286       .  S
In344       O351   2.248       .  S
In344       O352   2.268   1_655  S
In344       O353   2.274       .  S
In344       O356   2.251   1_655  S
C345        O351   1.258       .  A
C345        O353   1.262       .  A
C345        C446   1.479       .  S
O346        C354   1.260   1_455  A
O347        C354   1.258       .  A
C348        O355   1.258   1_655  A
C348        O349   1.261       .  A
C348        C433   1.483       .  S
C350        O352   1.261       .  A
C350        O356   1.261       .  A
C350        C486   1.479       .  S
C354        C470   1.481       .  S
In357       O359   2.245       .  S
In357       O360   2.223       .  S
In357       O368   2.257       .  S
In357       O362   2.290       .  S
In357       O364   2.291       .  S
In357       O365   2.214       .  S
In357       O366   2.254       .  S
In357       O369   2.260       .  S
C358        O364   1.263       .  A
C358        O366   1.256       .  A
C358        C490   1.492       .  S
O359        C367   1.262       .  A
O360        C367   1.262       .  A
C361        O368   1.255       .  A
C361        O362   1.263       .  A
C361        C421   1.486       .  S
C363        O365   1.259       .  A
C363        O369   1.265       .  A
C363        C450   1.463       .  S
C367        C441   1.468       .  S
In370       O372   2.248       .  S
In370       O373   2.228       .  S
In370       O381   2.263       .  S
In370       O375   2.279       .  S
In370       O377   2.293       .  S
In370       O378   2.209       .  S
In370       O379   2.249       .  S
In370       O382   2.250       .  S
C371        O377   1.267       .  A
C371        O379   1.258       .  A
C371        C418   1.492       .  S
O372        C380   1.263       .  A
O373        C380   1.259       .  A
C374        O381   1.258       .  A
C374        O375   1.259       .  A
C374        C494   1.489       .  S
C376        O378   1.260       .  A
C376        O382   1.263       .  A
C376        C482   1.467       .  S
C380        C414   1.465       .  S
In383       O385   2.289       .  S
In383       O386   2.259       .  S
In383       O394   2.254   1_565  S
In383       O388   2.287   1_565  S
In383       O390   2.278   1_565  S
In383       O391   2.259   1_565  S
In383       O392   2.258       .  S
In383       O395   2.297       .  S
C384        O390   1.260   1_565  A
C384        O392   1.260       .  A
C384        C458   1.482       .  S
O385        C393   1.263       .  A
O386        C393   1.257       .  A
C387        O394   1.261       .  A
C387        O388   1.263       .  A
C387        C417   1.487       .  S
C389        O391   1.257   1_565  A
C389        O395   1.261       .  A
C389        C409   1.487       .  S
C393        C422   1.487       .  S
In396       O398   2.246       .  S
In396       O399   2.220       .  S
In396       O407   2.277   1_556  S
In396       O401   2.278   1_545  S
In396       O403   2.307   1_545  S
In396       O404   2.212       .  S
In396       O405   2.240       .  S
In396       O408   2.257       .  S
C397        O403   1.266       .  A
C397        O405   1.255   1_565  A
C397        C426   1.492       .  S
O398        C406   1.264       .  A
O399        C406   1.259       .  A
C400        O407   1.258   1_566  A
C400        O401   1.261       .  A
C402        O404   1.260       .  A
C402        O408   1.265       .  A
C402        C413   1.470       .  S
C406        C429   1.463       .  S
C409        C410   1.350       .  D
C409        H411   1.087   1_565  S
C410        H412   1.086       .  S
C413        C414   1.342       .  D
C413        H415   1.087       .  S
C414        H416   1.088       .  S
C417        C418   1.352       .  D
C417        H419   1.087       .  S
C418        H420   1.087       .  S
C421        C422   1.346       .  D
C421        H423   1.087       .  S
C422        H424   1.087       .  S
C425        C426   1.353   1_545  D
C425        H427   1.087       .  S
C426        H428   1.086       .  S
C433        C434   1.348       .  D
C433        H435   1.087   1_655  S
C434        H436   1.086       .  S
C437        C438   1.350   1_655  D
C437        H439   1.087       .  S
C438        H440   1.088       .  S
C441        C442   1.340       .  D
C441        H443   1.086       .  S
C442        H444   1.086       .  S
C445        C446   1.345       .  D
C445        H447   1.086       .  S
C446        H448   1.086       .  S
C449        C450   1.340       .  D
C449        H451   1.086       .  S
C450        H452   1.087       .  S
C453        C454   1.351   1_545  D
C453        H455   1.086       .  S
C454        H456   1.087       .  S
C457        C458   1.350   1_545  D
C457        H459   1.086       .  S
C458        H460   1.087       .  S
C461        H463   1.086   1_556  S
C462        H464   1.087       .  S
C465        C466   1.342       .  D
C465        H467   1.088       .  S
C466        H468   1.087       .  S
C469        C470   1.349   1_455  D
C469        H471   1.087       .  S
C470        H472   1.087       .  S
C473        C474   1.351   1_455  D
C473        H475   1.087       .  S
C474        H476   1.088       .  S
C477        C478   1.340       .  D
C477        H479   1.086       .  S
C478        H480   1.087       .  S
C481        C482   1.341       .  D
C481        H483   1.086       .  S
C482        H484   1.086       .  S
C485        C486   1.348       .  D
C485        H487   1.087       .  S
C486        H488   1.087       .  S
C489        C490   1.352       .  D
C489        H491   1.086       .  S
C490        H492   1.086       .  S
C493        C494   1.350       .  D
C493        H495   1.086       .  S
C494        H496   1.086       .  S
C497        C498   1.351       .  D
C497        H499   1.087       .  S
C498        H500   1.087       .  S
C501        C502   1.348       .  D
C501        H503   1.087       .  S
C502        H504   1.086       .  S
