geometry optimzed in LAMMPS
_audit_creation_date              2020-11-30 
_audit_creation_method            'lammps2cif' 
_symmetry_space_group_name_H-M    'P1' 
_symmetry_Int_Tables_number       1 
_symmetry_cell_setting            triclinic 
loop_ 
_symmetry_equiv_pos_as_xyz 
  x,y,z 
_cell_length_a                    51.70572784 
_cell_length_b                    52.06281450797575 
_cell_length_c                    42.62856126933848 
_cell_angle_alpha                 90.00762352096201 
_cell_angle_beta                  89.97519764305491 
_cell_angle_gamma                 120.21773986778175 
loop_ 
_atom_site_label 
_atom_site_type_symbol 
_atom_site_fract_x 
_atom_site_fract_y 
_atom_site_fract_z 
_atom_site_charge 
C1          C  0.33275347  0.16682952  0.28294472     0.45900
H2          H  0.33088477  0.16555855  0.30877978    -0.03100
C3          C  0.33777550  0.16939875  0.22256494     0.46000
H4          H  0.34072941  0.17058298  0.19691070    -0.03100
C5          C  0.30278744  0.14547513  0.26634686    -0.16800
C6          C  0.34259608  0.19820511  0.26975246    -0.16600
C7          C  0.35602472  0.15881838  0.27059132    -0.16900
C8          C  0.30538634  0.14714637  0.23382502    -0.16900
C9          C  0.34575485  0.19970389  0.23730160    -0.16500
C10         C  0.35835745  0.15974817  0.23841505    -0.16800
O11         O  0.05819360  0.01950247  0.47897101    -0.72500
O12         O  0.01983112  0.05644440  0.02154192    -0.73500
O13         O  0.02745480  0.04703231  0.45850691    -0.62100
O14         O  0.04983618  0.02832116  0.04178136    -0.70500
O15         O  0.09638244  0.06055424  0.02997196    -0.70000
O16         O  0.05955380  0.09410871  0.46746825    -0.61300
O17         O  0.06269239  0.09357050  0.03570911    -0.73800
O18         O  0.09332803  0.06204436  0.46165051    -0.72600
Cu19       Cu  0.03769835  0.03670429  0.50022854     1.04600
Cu20       Cu  0.08056277  0.08014838  0.49875274     1.04300
C21         C  0.07898658  0.03347902  0.45986754     0.93700
C22         C  0.03399021  0.07868315  0.03871603     0.92900
C23         C  0.03584528  0.07415928  0.45359797     0.85000
C24         C  0.07739796  0.03696464  0.04473884     0.91300
O25         O  0.40437673  0.46456345  0.47043436    -0.72500
O26         O  0.44091069  0.03473367  0.03259644    -0.73500
O27         O  0.43808669  0.03081212  0.46480385    -0.62100
O28         O  0.40716012  0.46898206  0.03830420    -0.70500
O29         O  0.44319301  0.46231734  0.02233044    -0.70000
O30         O  0.48106631  0.03672628  0.47900872    -0.61300
O31         O  0.47349170  0.02042045  0.04198582    -0.73800
O32         O  0.45102644  0.47849970  0.45928217    -0.72600
Cu33       Cu  0.42012183  0.49979947  0.50152232     1.04600
Cu34       Cu  0.46332762  0.99948725  0.50062829     1.04300
C35         C  0.42340295  0.45984129  0.45599469     0.93700
C36         C  0.46480066  0.03897393  0.04643109     0.92900
C37         C  0.46676629  0.04457180  0.46179898     0.85000
C38         C  0.42171124  0.45500232  0.04053746     0.91300
O39         O  0.46226290  0.44353167  0.47973837    -0.72500
O40         O  0.03742672  0.48140218  0.02262264    -0.73500
O41         O  0.02077561  0.47337789  0.45980400    -0.62100
O42         O  0.47896675  0.45186056  0.04254699    -0.70500
O43         O  0.46514764  0.40534734  0.03279121    -0.70000
O44         O  0.03485339  0.44077228  0.46908681    -0.61300
O45         O  0.03226798  0.43910807  0.03709278    -0.73800
O46         O  0.46768294  0.40656242  0.46528073    -0.72600
Cu47       Cu  0.99985724  0.46363069  0.00118217     1.04600
Cu48       Cu  0.50005781  0.42052400  0.00106452     1.04300
C49         C  0.45357363  0.42101723  0.46300565     0.93700
C50         C  0.04605279  0.46764009  0.03960193     0.92900
C51         C  0.03930400  0.46457314  0.45519215     0.85000
C52         C  0.46030037  0.42448399  0.04650808     0.91300
C53         C  0.48348999  0.10045309  0.10490700     0.02700
C54         C  0.01499181  0.11874410  0.10170658     0.02700
C55         C  0.03063019  0.11092479  0.08032400    -0.17800
C56         C  0.01586985  0.08521614  0.06180727     0.02700
C57         C  0.48374193  0.06628001  0.06560765     0.02700
C58         C  0.46862119  0.07427912  0.08724281    -0.17800
H59         H  0.44461770  0.06014441  0.08997434     0.04800
H60         H  0.05459282  0.12540883  0.07784169     0.04800
C61         C  0.39823954  0.38240736  0.10559095     0.02700
C62         C  0.38258019  0.39835893  0.10526492     0.02700
C63         C  0.39145781  0.42223184  0.08447118    -0.17800
C64         C  0.41536164  0.43080119  0.06369029     0.02700
C65         C  0.43235969  0.41561310  0.06516193     0.02700
C66         C  0.42235047  0.39095973  0.08488978    -0.17800
H67         H  0.43417513  0.37868620  0.08487788     0.04800
H68         H  0.37906908  0.43393737  0.08419402     0.04800
C69         C  0.48393317  0.10127336  0.39736277     0.02700
C70         C  0.01537707  0.11452155  0.39312784     0.02700
C71         C  0.03090933  0.10399053  0.41111555    -0.17800
C72         C  0.01654416  0.08188030  0.43400208     0.02700
C73         C  0.48454169  0.06874679  0.43841287     0.02700
C74         C  0.46920208  0.07888407  0.41988485    -0.17800
H75         H  0.44531517  0.06941900  0.42310336     0.04800
H76         H  0.05481720  0.11374474  0.40773317     0.04800
C77         C  0.39146728  0.37791414  0.40380804     0.02700
C78         C  0.37757557  0.39542062  0.40094978     0.02700
C79         C  0.38944940  0.42221534  0.41767207    -0.17800
C80         C  0.41399370  0.43172929  0.43786480     0.02700
C81         C  0.42758165  0.41334676  0.44148523     0.02700
C82         C  0.41566317  0.38681863  0.42445993    -0.17800
H83         H  0.42555207  0.37283913  0.42693006     0.04800
H84         H  0.37917982  0.43584598  0.41504400     0.04800
C85         C  0.09836025  0.48247921  0.39322840     0.02700
C86         C  0.11278521  0.01416926  0.38982202     0.02700
C87         C  0.10690683  0.02979543  0.41332339    -0.17800
C88         C  0.08423672  0.01522906  0.43597577     0.02700
C89         C  0.06644838  0.48307863  0.43511400     0.02700
C90         C  0.07526798  0.46778539  0.41509715    -0.17800
H91         H  0.06371841  0.44365319  0.41635913     0.04800
H92         H  0.12038770  0.05380682  0.41426272     0.04800
C93         C  0.12669124  0.01893951  0.09540618     0.02700
C94         C  0.10871838  0.48709099  0.09868071     0.02700
C95         C  0.08185456  0.47156893  0.08135808    -0.17800
C96         C  0.07185454  0.48606109  0.06134082     0.02700
C97         C  0.08674530  0.01809893  0.06290675     0.02700
C98         C  0.11251495  0.03314020  0.08122289    -0.17800
H99         H  0.12109055  0.05651756  0.08471972     0.04800
H100        H  0.06855920  0.44758436  0.08333146     0.04800
C101        C  0.16396574  0.32875506  0.27947199     0.45900
H102        H  0.16456653  0.32479585  0.30432286    -0.03100
C103        C  0.16409564  0.33607450  0.21966814     0.46000
H104        H  0.16213139  0.33847028  0.19449169    -0.03100
C105        C  0.13920406  0.30070425  0.26204271    -0.16800
C106        C  0.15949618  0.35528401  0.27131793    -0.16600
C107        C  0.19424443  0.33667062  0.26429010    -0.16900
C108        C  0.13953855  0.30461352  0.23005123    -0.16900
C109        C  0.15883302  0.35881004  0.23884827    -0.16500
C110        C  0.19437117  0.33937701  0.23171823    -0.16800
C111        C  0.11487561  0.46862068  0.12123830     0.01800
C112        C  0.11676224  0.47415718  0.15392910     0.04600
C113        C  0.12395987  0.45752349  0.17469597    -0.11400
C114        C  0.12630437  0.43322998  0.16352107     0.23900
C115        C  0.12125116  0.42571369  0.13146300    -0.12000
C116        C  0.11665492  0.44380218  0.11026183     0.05300
C117        C  0.13520638  0.41610919  0.18484753     0.27700
C118        C  0.16411103  0.42009250  0.18285499    -0.12700
C119        C  0.17218721  0.40256373  0.20106387     0.05800
C120        C  0.15151272  0.38046667  0.22208422    -0.08700
C121        C  0.12297495  0.37810486  0.22511576     0.06700
C122        C  0.11469082  0.39510410  0.20609781    -0.13000
Br123      Br  0.12075842  0.39041978  0.11660442    -0.05100
Br124      Br  0.10860523  0.50386593  0.17059595     0.00500
Br125      Br  0.21310429  0.41261894  0.19859683     0.01000
Br126      Br  0.07447888  0.38865147  0.20778209    -0.03400
Br127      Br  0.11584054  0.43595221  0.06580557     0.01100
Br128      Br  0.13118245  0.46844030  0.21837849    -0.02700
Br129      Br  0.19280316  0.44970215  0.15441104    -0.03600
Br130      Br  0.09460061  0.35258344  0.25556040     0.00400
C131        C  0.10764359  0.46327178  0.37681806     0.01800
C132        C  0.08885277  0.44256030  0.35401317     0.04600
C133        C  0.09797259  0.42456591  0.33847803    -0.11400
C134        C  0.12555467  0.42683109  0.34605597     0.23900
C135        C  0.14337907  0.44611633  0.37022923    -0.12000
C136        C  0.13412323  0.46381285  0.38603538     0.05300
C137        C  0.13595141  0.40892264  0.32881339     0.27700
C138        C  0.13000503  0.38131803  0.34065880    -0.12700
C139        C  0.14209170  0.36541446  0.32574318     0.05800
C140        C  0.15697751  0.37542106  0.29609648    -0.08700
C141        C  0.16790491  0.40570932  0.28919614     0.06700
C142        C  0.15595756  0.42157672  0.30372440    -0.13000
Br143      Br  0.18055785  0.44826715  0.38157904    -0.05100
Br144      Br  0.05176268  0.44049043  0.34240919     0.00500
Br145      Br  0.14567157  0.33737237  0.35251036     0.01000
Br146      Br  0.16890114  0.46153867  0.29032822    -0.03400
Br147      Br  0.15748569  0.48858133  0.42062440     0.01100
Br148      Br  0.07313103  0.39733524  0.30628663    -0.02700
Br149      Br  0.10661406  0.36638548  0.37865261    -0.03600
Br150      Br  0.20663402  0.42892448  0.27111804     0.00400
C151        C  0.35012243  0.38603671  0.38154294     0.01800
C152        C  0.32307747  0.38072156  0.39584055     0.04600
C153        C  0.29730230  0.37205466  0.37747018    -0.11400
C154        C  0.29768830  0.36668678  0.34510445     0.23900
C155        C  0.32436291  0.37127088  0.33109878    -0.12000
C156        C  0.35087881  0.38313452  0.34869975     0.05300
C157        C  0.27106666  0.35898380  0.32515629     0.27700
C158        C  0.24521481  0.33081249  0.32700948    -0.12700
C159        C  0.21986665  0.32408750  0.30860866     0.05800
C160        C  0.22112162  0.34436132  0.28524366    -0.08700
C161        C  0.24775153  0.37260187  0.28356187     0.06700
C162        C  0.27182077  0.38014719  0.30418640    -0.13000
Br163      Br  0.32467276  0.36154880  0.28755678    -0.05100
Br164      Br  0.32096130  0.38557492  0.44057269     0.00500
Br165      Br  0.18470022  0.28597185  0.31543337     0.01000
Br166      Br  0.30600085  0.42016819  0.30451779    -0.03400
Br167      Br  0.38844028  0.40004903  0.32676081     0.01100
Br168      Br  0.26166060  0.36838632  0.39645523    -0.02700
Br169      Br  0.24507720  0.30109754  0.35440790    -0.03600
Br170      Br  0.25268123  0.40241865  0.25416205     0.00400
C171        C  0.11894815  0.27144339  0.27864893     0.01800
C172        C  0.09582452  0.26814033  0.29926826     0.04600
C173        C  0.07784867  0.24119923  0.31536506    -0.11400
C174        C  0.08392858  0.21786077  0.31312641     0.23900
C175        C  0.10665100  0.22064511  0.29293902    -0.12000
C176        C  0.12302064  0.24656517  0.27475023     0.05300
C177        C  0.06708924  0.19093588  0.33308222     0.27700
C178        C  0.07333586  0.19250757  0.36539529    -0.12800
C179        C  0.05585919  0.16799059  0.38499669     0.05800
C180        C  0.03322350  0.14075587  0.37206041    -0.08700
C181        C  0.02921068  0.13858633  0.33910533     0.06700
C182        C  0.04482615  0.16396502  0.31999847    -0.13000
Br183      Br  0.11634060  0.18928337  0.29159883    -0.05100
Br184      Br  0.08685712  0.29921205  0.30572705     0.00500
Br185      Br  0.06336520  0.17240095  0.42967928     0.01000
Br186      Br  0.03581074  0.16190594  0.27576969    -0.03400
Br187      Br  0.15180708  0.24721293  0.24605681     0.01100
Br188      Br  0.04447322  0.23580193  0.34087444    -0.02700
Br189      Br  0.10643463  0.22835076  0.38260478    -0.03600
Br190      Br  0.50584170  0.10060199  0.31915097     0.00400
C191        C  0.22087845  0.34482328  0.21060790     0.01800
C192        C  0.22890624  0.36271906  0.18296043     0.04600
C193        C  0.25855323  0.37701461  0.17213913    -0.11400
C194        C  0.27760214  0.36638875  0.18100079     0.23900
C195        C  0.26755773  0.34336351  0.20313582    -0.12000
C196        C  0.23970231  0.33291327  0.21821715     0.05300
C197        C  0.30495623  0.37485575  0.16216460     0.27700
C198        C  0.30192286  0.36658314  0.13028931    -0.12700
C199        C  0.32736281  0.37717859  0.11129135     0.05800
C200        C  0.35600302  0.39026876  0.12520725    -0.08700
C201        C  0.35917276  0.39755589  0.15741048     0.06700
C202        C  0.33378481  0.39142802  0.17537852    -0.13000
Br203      Br  0.29124274  0.32476015  0.21101650    -0.05100
Br204      Br  0.20053799  0.35844417  0.15076477     0.00500
Br205      Br  0.32248052  0.37487007  0.06614820     0.01000
Br206      Br  0.33845517  0.40683869  0.21738455    -0.03400
Br207      Br  0.22533278  0.29722870  0.24250428     0.01100
Br208      Br  0.27203623  0.40939579  0.14246229    -0.02700
Br209      Br  0.26300652  0.33976384  0.11262546    -0.03600
Br210      Br  0.39831631  0.41779876  0.17633363     0.00400
C211        C  0.11971826  0.28003718  0.20711705     0.01800
C212        C  0.13195242  0.26978088  0.18352726     0.04600
C213        C  0.11328634  0.24449339  0.16538055    -0.11400
C214        C  0.08256143  0.22777099  0.17179321     0.23900
C215        C  0.06989573  0.23801198  0.19397932    -0.12000
C216        C  0.08806726  0.26490952  0.20990376     0.05300
C217        C  0.06380112  0.19944475  0.15489833     0.27700
C218        C  0.04710900  0.19870979  0.12847930    -0.12700
C219        C  0.03138694  0.17241318  0.11090431     0.05800
C220        C  0.03221374  0.14673159  0.11975244    -0.08700
C221        C  0.05062126  0.14818569  0.14495915     0.06700
C222        C  0.06516461  0.17401265  0.16339163    -0.13000
Br223      Br  0.02746845  0.21479630  0.20260317    -0.05100
Br224      Br  0.17398805  0.28690757  0.17665130     0.00500
Br225      Br  0.01187991  0.17275881  0.07256796     0.01000
Br226      Br  0.08720065  0.17477892  0.20026894    -0.03400
Br227      Br  0.06826041  0.28232753  0.23109827     0.01100
Br228      Br  0.12969219  0.23180981  0.13187961    -0.02700
Br229      Br  0.04669249  0.23410378  0.11585353    -0.03600
Br230      Br  0.05824229  0.11600926  0.15272539     0.00400
C231        C  0.39087639  0.35715790  0.12743025     0.01800
C232        C  0.41361175  0.35719311  0.14603385     0.04600
C233        C  0.40824203  0.33090715  0.16108043    -0.11400
C234        C  0.37855211  0.30718641  0.16468730     0.23900
C235        C  0.35525121  0.30906874  0.14968415    -0.12000
C236        C  0.36229341  0.33140331  0.12743284     0.05300
C237        C  0.37192103  0.27982110  0.18236344     0.27700
C238        C  0.35581371  0.25168112  0.16811475    -0.12700
C239        C  0.34405749  0.22595402  0.18676051     0.05800
C240        C  0.35602395  0.22731503  0.21730394    -0.08700
C241        C  0.37811064  0.25580151  0.22819822     0.06700
C242        C  0.38152367  0.28143092  0.21350341    -0.13000
Br243      Br  0.31366923  0.28113364  0.15855327    -0.05100
Br244      Br  0.45217781  0.39271258  0.15119451     0.00500
Br245      Br  0.30891666  0.19171315  0.17035564     0.01000
Br246      Br  0.39745845  0.31787168  0.23702179    -0.03400
Br247      Br  0.33600520  0.32147670  0.09211687     0.01100
Br248      Br  0.44189137  0.32664248  0.17328986    -0.02700
Br249      Br  0.35028316  0.24804720  0.12308698    -0.03600
Br250      Br  0.40853575  0.26121956  0.25773975     0.00400
C251        C  0.38229602  0.35073417  0.38473214     0.01800
C252        C  0.35452050  0.32462319  0.38986520     0.04600
C253        C  0.34586771  0.29938258  0.37098835    -0.11400
C254        C  0.36557195  0.29962662  0.34798667     0.23900
C255        C  0.39406892  0.32502615  0.34421782    -0.12000
C256        C  0.40245145  0.35048530  0.36243181     0.05300
C257        C  0.35753457  0.27248224  0.32942179     0.27700
C258        C  0.36929610  0.25440161  0.33797951    -0.12700
C259        C  0.36466038  0.23048299  0.31874612     0.05800
C260        C  0.34679698  0.22335628  0.29109082    -0.08700
C261        C  0.33277737  0.24030922  0.28448665     0.06700
C262        C  0.33923928  0.26540357  0.30277460    -0.13000
Br263      Br  0.42230486  0.32455640  0.31497942    -0.05100
Br264      Br  0.32989784  0.32206255  0.42500700     0.00500
Br265      Br  0.38582797  0.21034427  0.33023089     0.01000
Br266      Br  0.32355794  0.29073294  0.29107864    -0.03400
Br267      Br  0.44202265  0.38479911  0.35682601     0.01100
Br268      Br  0.30754968  0.26396408  0.37744068    -0.02700
Br269      Br  0.39291453  0.26346579  0.37594493    -0.03600
Br270      Br  0.30283095  0.22875852  0.25226830     0.00400
C271        C  0.46536704  0.11047327  0.37944522     0.01800
C272        C  0.46609037  0.13720872  0.38694942     0.04600
C273        C  0.44790463  0.14549671  0.37046080    -0.11400
C274        C  0.42917754  0.12721694  0.34623732     0.23900
C275        C  0.42744200  0.09992882  0.33957361    -0.12000
C276        C  0.44443525  0.09091357  0.35715275     0.05300
C277        C  0.41066326  0.13628005  0.32824958     0.27700
C278        C  0.37987086  0.12304922  0.33444609    -0.12700
C279        C  0.36183946  0.13000995  0.31571120     0.05800
C280        C  0.37498613  0.15197486  0.29189270    -0.08700
C281        C  0.40662510  0.16749255  0.28859085     0.06700
C282        C  0.42398099  0.15828737  0.30512560    -0.13000
Br283      Br  0.40173918  0.07498726  0.30624008    -0.05100
Br284      Br  0.48921429  0.16076395  0.42214036     0.00500
Br285      Br  0.31922653  0.10756903  0.32243740     0.01000
Br286      Br  0.46620973  0.17576394  0.29607517    -0.03400
Br287      Br  0.43745786  0.05101936  0.35176025     0.01100
Br288      Br  0.44775394  0.18137008  0.38164413    -0.02700
Br289      Br  0.36252697  0.09509166  0.36867916    -0.03600
Br290      Br  0.42760167  0.20432282  0.26593220     0.00400
C291        C  0.37784502  0.15115033  0.21976897     0.01800
C292        C  0.37357462  0.12199817  0.22188326     0.04600
C293        C  0.39020775  0.11338333  0.20281843    -0.11400
C294        C  0.41304889  0.13423657  0.18324878     0.23900
C295        C  0.41811423  0.16339207  0.18155249    -0.12000
C296        C  0.39970597  0.17139645  0.19833483     0.05300
C297        C  0.43083547  0.12516707  0.16331973     0.27700
C298        C  0.45185983  0.11890100  0.17701523    -0.12700
C299        C  0.46727252  0.10869522  0.15825400     0.05800
C300        C  0.46506424  0.10862623  0.12522164    -0.08700
C301        C  0.44362210  0.11454393  0.11155077     0.06700
C302        C  0.42591332  0.12173482  0.13066088    -0.13000
Br303      Br  0.45062130  0.19244949  0.15596952    -0.05100
Br304      Br  0.34274701  0.09202918  0.24782415     0.00500
Br305      Br  0.98687436  0.09006373  0.17831708     0.01000
Br306      Br  0.39404375  0.12585989  0.11227393    -0.03400
Br307      Br  0.40570394  0.21059251  0.19144436     0.01100
Br308      Br  0.38040335  0.07229155  0.20179146    -0.02700
Br309      Br  0.45945973  0.12410580  0.22158875    -0.03600
Br310      Br  0.43746455  0.11197643  0.06666707     0.00400
C311        C  0.13531318  0.03181733  0.36410269     0.01800
C312        C  0.14056114  0.05973857  0.35240111     0.04600
C313        C  0.16657677  0.07757163  0.33397139    -0.11400
C314        C  0.18857189  0.06905235  0.33069119     0.23900
C315        C  0.18146878  0.04083795  0.34192746    -0.12000
C316        C  0.15174990  0.02065161  0.34926576     0.05300
C317        C  0.21793862  0.08846689  0.31480623     0.27700
C318        C  0.22607761  0.07866399  0.28770183    -0.12700
C319        C  0.25520455  0.09522471  0.27542989     0.05800
C320        C  0.27427674  0.12521265  0.28464534    -0.08700
C321        C  0.26517564  0.13551952  0.31119951     0.06700
C322        C  0.23857351  0.11626964  0.32755421    -0.13000
Br323      Br  0.21019472  0.02784288  0.34418496    -0.05100
Br324      Br  0.11074988  0.07144170  0.35659613     0.00500
Br325      Br  0.26914338  0.07428555  0.24968974     0.01000
Br326      Br  0.23062438  0.12774576  0.36802036    -0.03400
Br327      Br  0.13157762  0.49870782  0.31223517     0.01100
Br328      Br  0.17167356  0.11258932  0.31285475    -0.02700
Br329      Br  0.19719462  0.04327629  0.26588486    -0.03600
Br330      Br  0.28589170  0.17621846  0.32478102     0.00400
C331        C  0.15825069  0.03864478  0.10859084     0.01800
C332        C  0.17453066  0.07013557  0.10463311     0.04600
C333        C  0.19659483  0.08813788  0.12666914    -0.11400
C334        C  0.20471047  0.07485273  0.15053671     0.23900
C335        C  0.19309844  0.04390784  0.14967108    -0.12000
C336        C  0.17321283  0.02695308  0.12571604     0.05300
C337        C  0.23025376  0.09380989  0.17148637     0.27700
C338        C  0.25863840  0.09785476  0.16470441    -0.12700
C339        C  0.28291633  0.11480284  0.18483240     0.05800
C340        C  0.27980931  0.13022531  0.21090517    -0.08700
C341        C  0.25178928  0.12887009  0.21485522     0.06700
C342        C  0.22681312  0.10924465  0.19663243    -0.13000
Br343      Br  0.20654877  0.02489594  0.17889771    -0.05100
Br344      Br  0.17547163  0.08812201  0.06453424     0.00500
Br345      Br  0.31897109  0.11406789  0.17609116     0.01000
Br346      Br  0.18761213  0.10333091  0.20593057    -0.03400
Br347      Br  0.18307816  0.50077334  0.10384137     0.01100
Br348      Br  0.21718649  0.13093574  0.12290211    -0.02700
Br349      Br  0.26419624  0.08005436  0.12720355    -0.03600
Br350      Br  0.24730744  0.15576701  0.24222873     0.00400
C351        C  0.33275349  0.16682957  0.78294470     0.45900
H352        H  0.33088484  0.16555865  0.80877980    -0.03100
C353        C  0.33777549  0.16939879  0.72256492     0.46000
H354        H  0.34072940  0.17058304  0.69691068    -0.03100
C355        C  0.30278743  0.14547521  0.76634688    -0.16800
C356        C  0.34259608  0.19820513  0.76975244    -0.16600
C357        C  0.35602473  0.15881843  0.77059129    -0.16900
C358        C  0.30538633  0.14714645  0.73382502    -0.16900
C359        C  0.34575486  0.19970393  0.73730159    -0.16500
C360        C  0.35835743  0.15974817  0.73841501    -0.16800
O361        O  0.05819367  0.01950247  0.97897117    -0.72500
O362        O  0.01983118  0.05644440  0.52154194    -0.73500
O363        O  0.02745484  0.04703231  0.95850690    -0.62100
O364        O  0.04983615  0.02832112  0.54178132    -0.70500
O365        O  0.09638239  0.06055426  0.52997194    -0.70000
O366        O  0.05955378  0.09410872  0.96746831    -0.61300
O367        O  0.06269242  0.09357061  0.53570904    -0.73800
O368        O  0.09332805  0.06204435  0.96165058    -0.72600
Cu369      Cu  0.03769836  0.03670431  0.00022858     1.04600
Cu370      Cu  0.08056277  0.08014835  0.99875279     1.04300
C371        C  0.07898661  0.03347901  0.95986766     0.93700
C372        C  0.03399024  0.07868320  0.53871596     0.92900
C373        C  0.03584529  0.07415928  0.95359798     0.85000
C374        C  0.07739794  0.03696467  0.54473884     0.91300
O375        O  0.40437672  0.46456346  0.97043433    -0.72500
O376        O  0.44091074  0.03473365  0.53259645    -0.73500
O377        O  0.43808664  0.03081213  0.96480384    -0.62100
O378        O  0.40716014  0.46898208  0.53830424    -0.70500
O379        O  0.44319301  0.46231735  0.52233050    -0.70000
O380        O  0.48106626  0.03672634  0.97900878    -0.61300
O381        O  0.47349179  0.02042048  0.54198583    -0.73800
O382        O  0.45102645  0.47849977  0.95928208    -0.72600
Cu383      Cu  0.42012181  0.49979947  0.00152227     1.04600
Cu384      Cu  0.46332758  0.99948728  0.00062831     1.04300
C385        C  0.42340296  0.45984133  0.95599463     0.93700
C386        C  0.46480073  0.03897396  0.54643109     0.92900
C387        C  0.46676624  0.04457182  0.96179899     0.85000
C388        C  0.42171123  0.45500233  0.54053752     0.91300
O389        O  0.46226292  0.44353169  0.97973832    -0.72500
O390        O  0.03742664  0.48140218  0.52262275    -0.73500
O391        O  0.02077560  0.47337785  0.95980398    -0.62100
O392        O  0.47896680  0.45186056  0.54254702    -0.70500
O393        O  0.46514762  0.40534731  0.53279131    -0.70000
O394        O  0.03485334  0.44077223  0.96908681    -0.61300
O395        O  0.03226804  0.43910809  0.53709277    -0.73800
O396        O  0.46768307  0.40656250  0.96528059    -0.72600
Cu397      Cu  0.99985720  0.46363069  0.50118219     1.04600
Cu398      Cu  0.50005775  0.42052396  0.50106456     1.04300
C399        C  0.45357372  0.42101728  0.96300555     0.93700
C400        C  0.04605279  0.46764011  0.53960196     0.92900
C401        C  0.03930399  0.46457310  0.95519214     0.85000
C402        C  0.46030042  0.42448400  0.54650816     0.91300
C403        C  0.48349003  0.10045316  0.60490696     0.02700
C404        C  0.01499184  0.11874416  0.60170650     0.02700
C405        C  0.03063017  0.11092482  0.58032392    -0.17800
C406        C  0.01586985  0.08521621  0.56180718     0.02700
C407        C  0.48374200  0.06628007  0.56560763     0.02700
C408        C  0.46862123  0.07427920  0.58724275    -0.17800
H409        H  0.44461781  0.06014452  0.58997427     0.04800
H410        H  0.05459291  0.12540889  0.57784160     0.04800
C411        C  0.39823960  0.38240742  0.60559099     0.02700
C412        C  0.38258020  0.39835893  0.60526493     0.02700
C413        C  0.39145782  0.42223188  0.58447125    -0.17800
C414        C  0.41536168  0.43080123  0.56369036     0.02700
C415        C  0.43235975  0.41561317  0.56516203     0.02700
C416        C  0.42235053  0.39095979  0.58488985    -0.17800
H417        H  0.43417518  0.37868622  0.58487795     0.04800
H418        H  0.37906917  0.43393739  0.58419415     0.04800
C419        C  0.48393312  0.10127336  0.89736280     0.02700
C420        C  0.01537714  0.11452154  0.89312785     0.02700
C421        C  0.03090937  0.10399050  0.91111554    -0.17800
C422        C  0.01654419  0.08188026  0.93400205     0.02700
C423        C  0.48454164  0.06874677  0.93841285     0.02700
C424        C  0.46920205  0.07888407  0.91988485    -0.17800
H425        H  0.44531507  0.06941899  0.92310341     0.04800
H426        H  0.05481727  0.11374473  0.90773320     0.04800
C427        C  0.39146732  0.37791421  0.90380796     0.02700
C428        C  0.37757560  0.39542069  0.90094974     0.02700
C429        C  0.38944944  0.42221538  0.91767203    -0.17800
C430        C  0.41399373  0.43172933  0.93786476     0.02700
C431        C  0.42758171  0.41334682  0.94148515     0.02700
C432        C  0.41566322  0.38681868  0.92445986    -0.17800
H433        H  0.42555208  0.37283921  0.92693000     0.04800
H434        H  0.37917988  0.43584606  0.91504393     0.04800
C435        C  0.09836023  0.48247921  0.89322838     0.02700
C436        C  0.11278525  0.01416930  0.88982209     0.02700
C437        C  0.10690684  0.02979543  0.91332347    -0.17800
C438        C  0.08423671  0.01522909  0.93597581     0.02700
C439        C  0.06644838  0.48307860  0.93511401     0.02700
C440        C  0.07526798  0.46778537  0.91509714    -0.17800
H441        H  0.06371845  0.44365316  0.91635912     0.04800
H442        H  0.12038780  0.05380693  0.91426285     0.04800
C443        C  0.12669129  0.01893957  0.59540609     0.02700
C444        C  0.10871840  0.48709099  0.59868074     0.02700
C445        C  0.08185458  0.47156897  0.58135814    -0.17800
C446        C  0.07185456  0.48606110  0.56134084     0.02700
C447        C  0.08674531  0.01809900  0.56290676     0.02700
C448        C  0.11251499  0.03314028  0.58122286    -0.17800
H449        H  0.12109058  0.05651764  0.58471970     0.04800
H450        H  0.06855912  0.44758431  0.58333157     0.04800
C451        C  0.16396576  0.32875504  0.77947193     0.45900
H452        H  0.16456655  0.32479581  0.80432286    -0.03100
C453        C  0.16409563  0.33607451  0.71966812     0.46000
H454        H  0.16213139  0.33847033  0.69449159    -0.03100
C455        C  0.13920404  0.30070424  0.76204267    -0.16800
C456        C  0.15949624  0.35528402  0.77131792    -0.16600
C457        C  0.19424444  0.33667058  0.76429004    -0.16900
C458        C  0.13953852  0.30461353  0.73005117    -0.16900
C459        C  0.15883304  0.35881005  0.73884825    -0.16500
C460        C  0.19437116  0.33937698  0.73171817    -0.16800
C461        C  0.11487566  0.46862070  0.62123833     0.01800
C462        C  0.11676228  0.47415721  0.65392912     0.04600
C463        C  0.12395994  0.45752354  0.67469600    -0.11400
C464        C  0.12630437  0.43322999  0.66352114     0.23900
C465        C  0.12125118  0.42571369  0.63146308    -0.12000
C466        C  0.11665496  0.44380218  0.61026187     0.05300
C467        C  0.13520639  0.41610923  0.68484762     0.27700
C468        C  0.16411102  0.42009249  0.68285503    -0.12700
C469        C  0.17218720  0.40256372  0.70106389     0.05800
C470        C  0.15151272  0.38046666  0.72208424    -0.08700
C471        C  0.12297497  0.37810488  0.72511580     0.06700
C472        C  0.11469084  0.39510416  0.70609791    -0.13000
Br473      Br  0.12075846  0.39041973  0.61660464    -0.05100
Br474      Br  0.10860510  0.50386587  0.67059597     0.00500
Br475      Br  0.21310429  0.41261890  0.69859686     0.01000
Br476      Br  0.07447887  0.38865143  0.70778212    -0.03400
Br477      Br  0.11584041  0.43595214  0.56580561     0.01100
Br478      Br  0.13118249  0.46844029  0.71837853    -0.02700
Br479      Br  0.19280318  0.44970210  0.65441108    -0.03600
Br480      Br  0.09460070  0.35258355  0.75556048     0.00400
C481        C  0.10764353  0.46327177  0.87681804     0.01800
C482        C  0.08885268  0.44256027  0.85401315     0.04600
C483        C  0.09797252  0.42456586  0.83847806    -0.11400
C484        C  0.12555461  0.42683105  0.84605597     0.23900
C485        C  0.14337896  0.44611624  0.87022927    -0.12000
C486        C  0.13412314  0.46381277  0.88603543     0.05300
C487        C  0.13595136  0.40892260  0.82881337     0.27700
C488        C  0.13000491  0.38131794  0.84065870    -0.12700
C489        C  0.14209164  0.36541441  0.82574312     0.05800
C490        C  0.15697756  0.37542106  0.79609649    -0.08700
C491        C  0.16790495  0.40570932  0.78919615     0.06700
C492        C  0.15595756  0.42157670  0.80372439    -0.13000
Br493      Br  0.18055765  0.44826690  0.88157910    -0.05100
Br494      Br  0.05176258  0.44049041  0.84240903     0.00500
Br495      Br  0.14567144  0.33737232  0.85251035     0.01000
Br496      Br  0.16890119  0.46153865  0.79032825    -0.03400
Br497      Br  0.15748571  0.48858127  0.92062441     0.01100
Br498      Br  0.07313104  0.39733519  0.80628666    -0.02700
Br499      Br  0.10661380  0.36638524  0.87865239    -0.03600
Br500      Br  0.20663407  0.42892445  0.77111808     0.00400
C501        C  0.35012247  0.38603682  0.88154289     0.01800
C502        C  0.32307755  0.38072173  0.89584050     0.04600
C503        C  0.29730240  0.37205484  0.87747009    -0.11400
C504        C  0.29768836  0.36668690  0.84510438     0.23900
C505        C  0.32436296  0.37127101  0.83109872    -0.12000
C506        C  0.35087885  0.38313467  0.84869971     0.05300
C507        C  0.27106669  0.35898387  0.82515625     0.27700
C508        C  0.24521487  0.33081254  0.82700948    -0.12700
C509        C  0.21986671  0.32408752  0.80860865     0.05800
C510        C  0.22112164  0.34436131  0.78524363    -0.08700
C511        C  0.24775149  0.37260191  0.78356193     0.06700
C512        C  0.27182073  0.38014725  0.80418645    -0.13000
Br513      Br  0.32467280  0.36154876  0.78755678    -0.05100
Br514      Br  0.32096143  0.38557509  0.94057266     0.00500
Br515      Br  0.18470030  0.28597185  0.81543338     0.01000
Br516      Br  0.30600078  0.42016822  0.80451763    -0.03400
Br517      Br  0.38844031  0.40004923  0.82676081     0.01100
Br518      Br  0.26166071  0.36838650  0.89645507    -0.02700
Br519      Br  0.24507726  0.30109755  0.85440791    -0.03600
Br520      Br  0.25268125  0.40241864  0.75416203     0.00400
C521        C  0.11894818  0.27144338  0.77864890     0.01800
C522        C  0.09582456  0.26814031  0.79926828     0.04600
C523        C  0.07784874  0.24119920  0.81536506    -0.11400
C524        C  0.08392868  0.21786077  0.81312645     0.23900
C525        C  0.10665113  0.22064516  0.79293907    -0.12000
C526        C  0.12302073  0.24656519  0.77475023     0.05300
C527        C  0.06708933  0.19093587  0.83308226     0.27700
C528        C  0.07333595  0.19250757  0.86539533    -0.12800
C529        C  0.05585926  0.16799059  0.88499673     0.05800
C530        C  0.03322358  0.14075586  0.87206045    -0.08700
C531        C  0.02921083  0.13858630  0.83910536     0.06700
C532        C  0.04482627  0.16396500  0.81999851    -0.13000
Br533      Br  0.11634078  0.18928348  0.79159887    -0.05100
Br534      Br  0.08685700  0.29921198  0.80572706     0.00500
Br535      Br  0.06336525  0.17240092  0.92967933     0.01000
Br536      Br  0.03581096  0.16190589  0.77576971    -0.03400
Br537      Br  0.15180710  0.24721291  0.74605665     0.01100
Br538      Br  0.04447322  0.23580186  0.84087428    -0.02700
Br539      Br  0.10643484  0.22835070  0.88260480    -0.03600
Br540      Br  0.50584175  0.10060197  0.81915102     0.00400
C541        C  0.22087845  0.34482328  0.71060785     0.01800
C542        C  0.22890625  0.36271908  0.68296042     0.04600
C543        C  0.25855325  0.37701464  0.67213914    -0.11400
C544        C  0.27760218  0.36638881  0.68100082     0.23900
C545        C  0.26755774  0.34336352  0.70313576    -0.12000
C546        C  0.23970230  0.33291326  0.71821706     0.05300
C547        C  0.30495626  0.37485579  0.66216465     0.27700
C548        C  0.30192286  0.36658321  0.63028935    -0.12700
C549        C  0.32736280  0.37717863  0.61129139     0.05800
C550        C  0.35600302  0.39026874  0.62520727    -0.08700
C551        C  0.35917278  0.39755584  0.65741051     0.06700
C552        C  0.33378484  0.39142798  0.67537856    -0.13000
Br553      Br  0.29124274  0.32476011  0.71101631    -0.05100
Br554      Br  0.20053801  0.35844415  0.65076476     0.00500
Br555      Br  0.32248049  0.37487025  0.56614824     0.01000
Br556      Br  0.33845522  0.40683865  0.71738459    -0.03400
Br557      Br  0.22533290  0.29722883  0.74250432     0.01100
Br558      Br  0.27203626  0.40939579  0.64246230    -0.02700
Br559      Br  0.26300649  0.33976401  0.61262549    -0.03600
Br560      Br  0.39831635  0.41779872  0.67633366     0.00400
C561        C  0.11971823  0.28003721  0.70711696     0.01800
C562        C  0.13195240  0.26978100  0.68352710     0.04600
C563        C  0.11328635  0.24449349  0.66538041    -0.11400
C564        C  0.08256145  0.22777101  0.67179312     0.23900
C565        C  0.06989574  0.23801194  0.69397929    -0.12000
C566        C  0.08806725  0.26490951  0.70990371     0.05300
C567        C  0.06380118  0.19944477  0.65489824     0.27700
C568        C  0.04710905  0.19870980  0.62847920    -0.12700
C569        C  0.03138693  0.17241319  0.61090425     0.05800
C570        C  0.03221380  0.14673163  0.61975235    -0.08700
C571        C  0.05062138  0.14818574  0.64495902     0.06700
C572        C  0.06516472  0.17401269  0.66339151    -0.13000
Br573      Br  0.02746848  0.21479624  0.70260321    -0.05100
Br574      Br  0.17398803  0.28690775  0.67665111     0.00500
Br575      Br  0.01187997  0.17275879  0.57256780     0.01000
Br576      Br  0.08720067  0.17477890  0.70026892    -0.03400
Br577      Br  0.06826044  0.28232748  0.73109830     0.01100
Br578      Br  0.12969232  0.23180996  0.63187961    -0.02700
Br579      Br  0.04669253  0.23410379  0.61585352    -0.03600
Br580      Br  0.05824232  0.11600924  0.65272539     0.00400
C581        C  0.39087649  0.35715800  0.62743030     0.01800
C582        C  0.41361185  0.35719321  0.64603389     0.04600
C583        C  0.40824206  0.33090721  0.66108044    -0.11400
C584        C  0.37855214  0.30718643  0.66468725     0.23900
C585        C  0.35525125  0.30906878  0.64968410    -0.12000
C586        C  0.36229350  0.33140341  0.62743287     0.05300
C587        C  0.37192108  0.27982113  0.68236342     0.27700
C588        C  0.35581376  0.25168116  0.66811474    -0.12700
C589        C  0.34405751  0.22595408  0.68676051     0.05800
C590        C  0.35602395  0.22731506  0.71730396    -0.08700
C591        C  0.37811063  0.25580154  0.72819826     0.06700
C592        C  0.38152370  0.28143095  0.71350340    -0.13000
Br593      Br  0.31366919  0.28113365  0.65855307    -0.05100
Br594      Br  0.45217794  0.39271272  0.65119455     0.00500
Br595      Br  0.30891676  0.19171325  0.67035548     0.01000
Br596      Br  0.39745859  0.31787181  0.73702164    -0.03400
Br597      Br  0.33600535  0.32147688  0.59211688     0.01100
Br598      Br  0.44189131  0.32664245  0.67328989    -0.02700
Br599      Br  0.35028303  0.24804718  0.62308698    -0.03600
Br600      Br  0.40853577  0.26121952  0.75773976     0.00400
C601        C  0.38229606  0.35073426  0.88473203     0.01800
C602        C  0.35452053  0.32462329  0.88986507     0.04600
C603        C  0.34586772  0.29938267  0.87098822    -0.11400
C604        C  0.36557196  0.29962668  0.84798656     0.23900
C605        C  0.39406892  0.32502622  0.84421771    -0.12000
C606        C  0.40245144  0.35048537  0.86243167     0.05300
C607        C  0.35753463  0.27248233  0.82942164     0.27700
C608        C  0.36929619  0.25440172  0.83797937    -0.12700
C609        C  0.36466043  0.23048307  0.81874603     0.05800
C610        C  0.34679695  0.22335628  0.79109078    -0.08700
C611        C  0.33277732  0.24030922  0.78448656     0.06700
C612        C  0.33923933  0.26540365  0.80277442    -0.13000
Br613      Br  0.42230498  0.32455653  0.81497944    -0.05100
Br614      Br  0.32989794  0.32206272  0.92500687     0.00500
Br615      Br  0.38582810  0.21034442  0.83023089     0.01000
Br616      Br  0.32355783  0.29073290  0.79107847    -0.03400
Br617      Br  0.44202267  0.38479909  0.85682584     0.01100
Br618      Br  0.30754963  0.26396425  0.87744049    -0.02700
Br619      Br  0.39291439  0.26346576  0.87594495    -0.03600
Br620      Br  0.30283086  0.22875849  0.75226816     0.00400
C621        C  0.46536700  0.11047331  0.87944528     0.01800
C622        C  0.46609040  0.13720880  0.88694946     0.04600
C623        C  0.44790470  0.14549684  0.87046081    -0.11400
C624        C  0.42917754  0.12721704  0.84623737     0.23900
C625        C  0.42744195  0.09992890  0.83957369    -0.12000
C626        C  0.44443518  0.09091361  0.85715281     0.05300
C627        C  0.41066328  0.13628015  0.82824961     0.27700
C628        C  0.37987089  0.12304939  0.83444615    -0.12700
C629        C  0.36183951  0.13001012  0.81571124     0.05800
C630        C  0.37498615  0.15197495  0.79189269    -0.08700
C631        C  0.40662511  0.16749260  0.78859085     0.06700
C632        C  0.42398101  0.15828741  0.80512559    -0.13000
Br633      Br  0.40173913  0.07498741  0.80624011    -0.05100
Br634      Br  0.48921442  0.16076410  0.92214037     0.00500
Br635      Br  0.31922661  0.10756919  0.82243742     0.01000
Br636      Br  0.46620975  0.17576390  0.79607520    -0.03400
Br637      Br  0.43745773  0.05101936  0.85176029     0.01100
Br638      Br  0.44775410  0.18137026  0.88164415    -0.02700
Br639      Br  0.36252694  0.09509184  0.86867920    -0.03600
Br640      Br  0.42760159  0.20432283  0.76593222     0.00400
C641        C  0.37784500  0.15115030  0.71976895     0.01800
C642        C  0.37357462  0.12199814  0.72188325     0.04600
C643        C  0.39020774  0.11338330  0.70281840    -0.11400
C644        C  0.41304890  0.13423655  0.68324878     0.23900
C645        C  0.41811426  0.16339205  0.68155255    -0.12000
C646        C  0.39970599  0.17139642  0.69833486     0.05300
C647        C  0.43083547  0.12516705  0.66331971     0.27700
C648        C  0.45185981  0.11890097  0.67701523    -0.12700
C649        C  0.46727249  0.10869516  0.65825401     0.05800
C650        C  0.46506424  0.10862622  0.62522162    -0.08700
C651        C  0.44362210  0.11454390  0.61155073     0.06700
C652        C  0.42591332  0.12173477  0.63066086    -0.13000
Br653      Br  0.45062121  0.19244948  0.65596952    -0.05100
Br654      Br  0.34274706  0.09202915  0.74782419     0.00500
Br655      Br  0.98687435  0.09006390  0.67831708     0.01000
Br656      Br  0.39404366  0.12585964  0.61227395    -0.03400
Br657      Br  0.40570398  0.21059248  0.69144440     0.01100
Br658      Br  0.38040339  0.07229152  0.70179149    -0.02700
Br659      Br  0.45945961  0.12410575  0.72158879    -0.03600
Br660      Br  0.43746460  0.11197640  0.56666696     0.00400
C661        C  0.13531321  0.03181734  0.86410275     0.01800
C662        C  0.14056113  0.05973856  0.85240114     0.04600
C663        C  0.16657677  0.07757161  0.83397143    -0.11400
C664        C  0.18857191  0.06905234  0.83069125     0.23900
C665        C  0.18146883  0.04083795  0.84192753    -0.12000
C666        C  0.15174995  0.02065163  0.84926584     0.05300
C667        C  0.21793864  0.08846691  0.81480629     0.27700
C668        C  0.22607759  0.07866405  0.78770182    -0.12700
C669        C  0.25520453  0.09522480  0.77542987     0.05800
C670        C  0.27427673  0.12521273  0.78464537    -0.08700
C671        C  0.26517562  0.13551960  0.81119954     0.06700
C672        C  0.23857349  0.11626971  0.82755426    -0.13000
Br673      Br  0.21019475  0.02784286  0.84418498    -0.05100
Br674      Br  0.11074980  0.07144164  0.85659615     0.00500
Br675      Br  0.26914334  0.07428572  0.74968957     0.01000
Br676      Br  0.23062434  0.12774591  0.86802036    -0.03400
Br677      Br  0.13157766  0.49870778  0.81223522     0.01100
Br678      Br  0.17167359  0.11258929  0.81285478    -0.02700
Br679      Br  0.19719457  0.04327647  0.76588469    -0.03600
Br680      Br  0.28589180  0.17621856  0.82478106     0.00400
C681        C  0.15825074  0.03864477  0.60859073     0.01800
C682        C  0.17453063  0.07013555  0.60463311     0.04600
C683        C  0.19659477  0.08813785  0.62666914    -0.11400
C684        C  0.20471040  0.07485271  0.65053673     0.23900
C685        C  0.19309835  0.04390783  0.64967111    -0.12000
C686        C  0.17321283  0.02695306  0.62571599     0.05300
C687        C  0.23025371  0.09380987  0.67148639     0.27700
C688        C  0.25863836  0.09785478  0.66470444    -0.12700
C689        C  0.28291630  0.11480290  0.68483240     0.05800
C690        C  0.27980929  0.13022539  0.71090514    -0.08700
C691        C  0.25178926  0.12887011  0.71485517     0.06700
C692        C  0.22681309  0.10924464  0.69663243    -0.13000
Br693      Br  0.20654874  0.02489606  0.67889778    -0.05100
Br694      Br  0.17547168  0.08812199  0.56453425     0.00500
Br695      Br  0.31897100  0.11406788  0.67609122     0.01000
Br696      Br  0.18761211  0.10333086  0.70593062    -0.03400
Br697      Br  0.18307829  0.50077349  0.60384138     0.01100
Br698      Br  0.21718636  0.13093570  0.62290215    -0.02700
Br699      Br  0.26419634  0.08005451  0.62720357    -0.03600
Br700      Br  0.24730747  0.15576704  0.74222861     0.00400
C701        C  0.33275345  0.66682957  0.28294476     0.45900
H702        H  0.33088478  0.66555862  0.30877982    -0.03100
C703        C  0.33777547  0.66939882  0.22256497     0.46000
H704        H  0.34072939  0.67058309  0.19691073    -0.03100
C705        C  0.30278739  0.64547521  0.26634690    -0.16800
C706        C  0.34259609  0.69820515  0.26975250    -0.16600
C707        C  0.35602467  0.65881841  0.27059133    -0.16900
C708        C  0.30538630  0.64714647  0.23382505    -0.16900
C709        C  0.34575486  0.69970395  0.23730164    -0.16500
C710        C  0.35835738  0.65974817  0.23841505    -0.16800
O711        O  0.05819363  0.51950245  0.47897114    -0.72500
O712        O  0.01983116  0.55644434  0.02154205    -0.73500
O713        O  0.02745485  0.54703233  0.45850692    -0.62100
O714        O  0.04983612  0.52832106  0.04178133    -0.70500
O715        O  0.09638237  0.56055424  0.02997195    -0.70000
O716        O  0.05955385  0.59410876  0.46746825    -0.61300
O717        O  0.06269239  0.59357061  0.03570909    -0.73800
O718        O  0.09332803  0.56204436  0.46165057    -0.72600
Cu719      Cu  0.03769831  0.53670427  0.50022859     1.04600
Cu720      Cu  0.08056281  0.58014840  0.49875276     1.04300
C721        C  0.07898659  0.53347901  0.45986763     0.93700
C722        C  0.03399022  0.57868316  0.03871607     0.92900
C723        C  0.03584532  0.57415931  0.45359798     0.85000
C724        C  0.07739791  0.53696463  0.04473885     0.91300
O725        O  0.40437670  0.96456342  0.47043437    -0.72500
O726        O  0.44091069  0.53473363  0.03259639    -0.73500
O727        O  0.43808669  0.53081210  0.46480383    -0.62100
O728        O  0.40716011  0.96898207  0.03830423    -0.70500
O729        O  0.44319304  0.96231742  0.02233054    -0.70000
O730        O  0.48106630  0.53672628  0.47900871    -0.61300
O731        O  0.47349173  0.52042043  0.04198581    -0.73800
O732        O  0.45102643  0.97849973  0.45928219    -0.72600
Cu733      Cu  0.42012184  0.99979946  0.50152233     1.04600
Cu734      Cu  0.46332758  0.49948722  0.50062826     1.04300
C735        C  0.42340295  0.95984128  0.45599471     0.93700
C736        C  0.46480065  0.53897391  0.04643106     0.92900
C737        C  0.46676629  0.54457180  0.46179898     0.85000
C738        C  0.42171126  0.95500237  0.04053755     0.91300
O739        O  0.46226294  0.94353172  0.47973838    -0.72500
O740        O  0.03742659  0.98140214  0.02262273    -0.73500
O741        O  0.02077562  0.97337786  0.45980398    -0.62100
O742        O  0.47896683  0.95186065  0.04254701    -0.70500
O743        O  0.46514765  0.90534741  0.03279128    -0.70000
O744        O  0.03485334  0.94077221  0.46908681    -0.61300
O745        O  0.03226797  0.93910803  0.03709275    -0.73800
O746        O  0.46768306  0.90656252  0.46528071    -0.72600
Cu747      Cu  0.99985714  0.96363064  0.00118219     1.04600
Cu748      Cu  0.50005775  0.92052397  0.00106455     1.04300
C749        C  0.45357371  0.92101730  0.46300564     0.93700
C750        C  0.04605275  0.96764005  0.03960193     0.92900
C751        C  0.03930399  0.96457308  0.45519213     0.85000
C752        C  0.46030045  0.92448409  0.04650815     0.91300
C753        C  0.48348997  0.60045316  0.10490693     0.02700
C754        C  0.01499185  0.61874406  0.10170665     0.02700
C755        C  0.03063020  0.61092475  0.08032406    -0.17800
C756        C  0.01586984  0.58521613  0.06180730     0.02700
C757        C  0.48374190  0.56628003  0.06560760     0.02700
C758        C  0.46862115  0.57427921  0.08724270    -0.17800
H759        H  0.44461766  0.56014453  0.08997422     0.04800
H760        H  0.05459285  0.62540880  0.07784174     0.04800
C761        C  0.39823962  0.88240741  0.10559101     0.02700
C762        C  0.38258029  0.89835902  0.10526505     0.02700
C763        C  0.39145792  0.92223195  0.08447136    -0.17800
C764        C  0.41536172  0.93080129  0.06369042     0.02700
C765        C  0.43235978  0.91561321  0.06516204     0.02700
C766        C  0.42235053  0.89095980  0.08488981    -0.17800
H767        H  0.43417519  0.87868621  0.08487784     0.04800
H768        H  0.37906922  0.93393752  0.08419426     0.04800
C769        C  0.48393311  0.60127338  0.39736277     0.02700
C770        C  0.01537710  0.61452149  0.39312782     0.02700
C771        C  0.03090935  0.60399048  0.41111552    -0.17800
C772        C  0.01654419  0.58188030  0.43400209     0.02700
C773        C  0.48454166  0.56874683  0.43841288     0.02700
C774        C  0.46920206  0.57888414  0.41988489    -0.17800
H775        H  0.44531508  0.56941907  0.42310347     0.04800
H776        H  0.05481724  0.61374468  0.40773315     0.04800
C777        C  0.39146735  0.87791417  0.40380803     0.02700
C778        C  0.37757561  0.89542064  0.40094980     0.02700
C779        C  0.38944945  0.92221535  0.41767207    -0.17800
C780        C  0.41399375  0.93172931  0.43786480     0.02700
C781        C  0.42758172  0.91334679  0.44148522     0.02700
C782        C  0.41566322  0.88681866  0.42445993    -0.17800
H783        H  0.42555212  0.87283913  0.42693010     0.04800
H784        H  0.37917985  0.93584599  0.41504398     0.04800
C785        C  0.09836022  0.98247920  0.39322833     0.02700
C786        C  0.11278522  0.51416928  0.38982206     0.02700
C787        C  0.10690683  0.52979544  0.41332341    -0.17800
C788        C  0.08423671  0.51522911  0.43597578     0.02700
C789        C  0.06644841  0.98307858  0.43511401     0.02700
C790        C  0.07526798  0.96778535  0.41509711    -0.17800
H791        H  0.06371844  0.94365315  0.41635904     0.04800
H792        H  0.12038775  0.55380694  0.41426272     0.04800
C793        C  0.12669129  0.51893955  0.09540607     0.02700
C794        C  0.10871833  0.98709093  0.09868078     0.02700
C795        C  0.08185453  0.97156890  0.08135814    -0.17800
C796        C  0.07185453  0.98606104  0.06134080     0.02700
C797        C  0.08674529  0.51809896  0.06290677     0.02700
C798        C  0.11251497  0.53314025  0.08122285    -0.17800
H799        H  0.12109054  0.55651759  0.08471968     0.04800
H800        H  0.06855907  0.94758425  0.08333157     0.04800
C801        C  0.16396576  0.82875503  0.27947199     0.45900
H802        H  0.16456655  0.82479579  0.30432287    -0.03100
C803        C  0.16409568  0.83607450  0.21966814     0.46000
H804        H  0.16213147  0.83847031  0.19449167    -0.03100
C805        C  0.13920410  0.80070420  0.26204270    -0.16800
C806        C  0.15949618  0.85528396  0.27131794    -0.16600
C807        C  0.19424446  0.83667064  0.26429011    -0.16900
C808        C  0.13953859  0.80461349  0.23005121    -0.16900
C809        C  0.15883302  0.85881000  0.23884827    -0.16500
C810        C  0.19437122  0.83937704  0.23171825    -0.16800
C811        C  0.11487559  0.96862064  0.12123837     0.01800
C812        C  0.11676226  0.97415719  0.15392917     0.04600
C813        C  0.12395992  0.95752354  0.17469609    -0.11400
C814        C  0.12630434  0.93322997  0.16352120     0.23900
C815        C  0.12125111  0.92571366  0.13146312    -0.12000
C816        C  0.11665489  0.94380214  0.11026190     0.05300
C817        C  0.13520638  0.91610920  0.18484763     0.27700
C818        C  0.16411100  0.92009244  0.18285500    -0.12700
C819        C  0.17218718  0.90256366  0.20106386     0.05800
C820        C  0.15151271  0.88046661  0.22208422    -0.08700
C821        C  0.12297497  0.87810485  0.22511580     0.06700
C822        C  0.11469087  0.89510417  0.20609796    -0.13000
Br823      Br  0.12075823  0.89041966  0.11660462    -0.05100
Br824      Br  0.10860524  0.00386599  0.17059596     0.00500
Br825      Br  0.21310427  0.91261885  0.19859682     0.01000
Br826      Br  0.07447893  0.88865157  0.20778213    -0.03400
Br827      Br  0.11584036  0.93595211  0.06580562     0.01100
Br828      Br  0.13118255  0.96844041  0.21837863    -0.02700
Br829      Br  0.19280313  0.94970205  0.15441105    -0.03600
Br830      Br  0.09460067  0.85258350  0.25556045     0.00400
C831        C  0.10764354  0.96327177  0.37681800     0.01800
C832        C  0.08885267  0.94256024  0.35401315     0.04600
C833        C  0.09797252  0.92456583  0.33847804    -0.11400
C834        C  0.12555462  0.92683105  0.34605595     0.23900
C835        C  0.14337901  0.94611633  0.37022919    -0.12000
C836        C  0.13412318  0.96381284  0.38603534     0.05300
C837        C  0.13595138  0.90892258  0.32881340     0.27700
C838        C  0.13000501  0.88131798  0.34065883    -0.12700
C839        C  0.14209169  0.86541440  0.32574320     0.05800
C840        C  0.15697753  0.87542102  0.29609650    -0.08700
C841        C  0.16790492  0.90570929  0.28919614     0.06700
C842        C  0.15595751  0.92157665  0.30372437    -0.13000
Br843      Br  0.18055772  0.94826707  0.38157906    -0.05100
Br844      Br  0.05176253  0.94049034  0.34240919     0.00500
Br845      Br  0.14567156  0.83737230  0.35251036     0.01000
Br846      Br  0.16890113  0.96153860  0.29032822    -0.03400
Br847      Br  0.15748567  0.98858125  0.42062440     0.01100
Br848      Br  0.07313102  0.89733515  0.30628664    -0.02700
Br849      Br  0.10661390  0.86638539  0.37865257    -0.03600
Br850      Br  0.20663408  0.92892456  0.27111805     0.00400
C851        C  0.35012247  0.88603675  0.38154299     0.01800
C852        C  0.32307755  0.88072167  0.39584063     0.04600
C853        C  0.29730239  0.87205481  0.37747023    -0.11400
C854        C  0.29768833  0.86668687  0.34510452     0.23900
C855        C  0.32436295  0.87127099  0.33109885    -0.12000
C856        C  0.35087887  0.88313465  0.34869979     0.05300
C857        C  0.27106666  0.85898387  0.32515637     0.27700
C858        C  0.24521485  0.83081253  0.32700950    -0.12700
C859        C  0.21986669  0.82408750  0.30860866     0.05800
C860        C  0.22112163  0.84436134  0.28524370    -0.08700
C861        C  0.24775150  0.87260192  0.28356200     0.06700
C862        C  0.27182072  0.88014726  0.30418656    -0.13000
Br863      Br  0.32467276  0.86154870  0.28755694    -0.05100
Br864      Br  0.32096140  0.88557504  0.44057283     0.00500
Br865      Br  0.18470026  0.78597180  0.31543336     0.01000
Br866      Br  0.30600088  0.92016816  0.30451779    -0.03400
Br867      Br  0.38844036  0.90004915  0.32676083     0.01100
Br868      Br  0.26166079  0.86838667  0.39645524    -0.02700
Br869      Br  0.24507730  0.80109764  0.35440792    -0.03600
Br870      Br  0.25268125  0.90241861  0.25416204     0.00400
C871        C  0.11894817  0.77144332  0.27864891     0.01800
C872        C  0.09582455  0.76814025  0.29926824     0.04600
C873        C  0.07784869  0.74119914  0.31536502    -0.11400
C874        C  0.08392861  0.71786070  0.31312641     0.23900
C875        C  0.10665106  0.72064509  0.29293905    -0.12000
C876        C  0.12302067  0.74656512  0.27475023     0.05300
C877        C  0.06708927  0.69093581  0.33308221     0.27700
C878        C  0.07333588  0.69250751  0.36539528    -0.12800
C879        C  0.05585920  0.66799053  0.38499669     0.05800
C880        C  0.03322354  0.64075581  0.37206041    -0.08700
C881        C  0.02921078  0.63858624  0.33910532     0.06700
C882        C  0.04482620  0.66396494  0.31999846    -0.13000
Br883      Br  0.11634072  0.68928342  0.29159884    -0.05100
Br884      Br  0.08685713  0.79921197  0.30572704     0.00500
Br885      Br  0.06336521  0.67240087  0.42967929     0.01000
Br886      Br  0.03581074  0.66190585  0.27576969    -0.03400
Br887      Br  0.15180710  0.74721286  0.24605679     0.01100
Br888      Br  0.04447318  0.73580182  0.34087424    -0.02700
Br889      Br  0.10643464  0.72835069  0.38260478    -0.03600
Br890      Br  0.50584171  0.60060191  0.31915098     0.00400
C891        C  0.22087850  0.84482330  0.21060793     0.01800
C892        C  0.22890631  0.86271906  0.18296047     0.04600
C893        C  0.25855331  0.87701465  0.17213923    -0.11400
C894        C  0.27760220  0.86638877  0.18100087     0.23900
C895        C  0.26755774  0.84336347  0.20313581    -0.12000
C896        C  0.23970233  0.83291326  0.21821715     0.05300
C897        C  0.30495629  0.87485580  0.16216470     0.27700
C898        C  0.30192291  0.86658326  0.13028937    -0.12700
C899        C  0.32736289  0.87717871  0.11129143     0.05800
C900        C  0.35600310  0.89026884  0.12520737    -0.08700
C901        C  0.35917281  0.89755595  0.15741062     0.06700
C902        C  0.33378486  0.89142802  0.17537867    -0.13000
Br903      Br  0.29124273  0.82476007  0.21101650    -0.05100
Br904      Br  0.20053813  0.85844408  0.15076473     0.00500
Br905      Br  0.32248064  0.87487021  0.06614824     0.01000
Br906      Br  0.33845518  0.90683859  0.21738477    -0.03400
Br907      Br  0.22533285  0.79722878  0.24250431     0.01100
Br908      Br  0.27203634  0.90939592  0.14246253    -0.02700
Br909      Br  0.26300651  0.83976402  0.11262548    -0.03600
Br910      Br  0.39831632  0.91779869  0.17633386     0.00400
C911        C  0.11971829  0.78003718  0.20711702     0.01800
C912        C  0.13195247  0.76978094  0.18352721     0.04600
C913        C  0.11328640  0.74449343  0.16538051    -0.11400
C914        C  0.08256149  0.72777098  0.17179319     0.23900
C915        C  0.06989577  0.73801195  0.19397929    -0.12000
C916        C  0.08806729  0.76490949  0.20990375     0.05300
C917        C  0.06380119  0.69944471  0.15489834     0.27700
C918        C  0.04710902  0.69870972  0.12847932    -0.12700
C919        C  0.03138696  0.67241312  0.11090434     0.05800
C920        C  0.03221379  0.64673155  0.11975249    -0.08700
C921        C  0.05062131  0.64818565  0.14495919     0.06700
C922        C  0.06516470  0.67401262  0.16339165    -0.13000
Br923      Br  0.02746848  0.71479623  0.20260317    -0.05100
Br924      Br  0.17398814  0.78690768  0.17665130     0.00500
Br925      Br  0.01187992  0.67275872  0.07256797     0.01000
Br926      Br  0.08720082  0.67477886  0.20026890    -0.03400
Br927      Br  0.06826041  0.78232745  0.23109828     0.01100
Br928      Br  0.12969230  0.73180993  0.13187959    -0.02700
Br929      Br  0.04669249  0.73410370  0.11585353    -0.03600
Br930      Br  0.05824230  0.61600918  0.15272540     0.00400
C931        C  0.39087648  0.85715796  0.12743031     0.01800
C932        C  0.41361185  0.85719316  0.14603388     0.04600
C933        C  0.40824209  0.83090717  0.16108042    -0.11400
C934        C  0.37855215  0.80718643  0.16468730     0.23900
C935        C  0.35525123  0.80906878  0.14968421    -0.12000
C936        C  0.36229347  0.83140339  0.12743294     0.05300
C937        C  0.37192108  0.77982114  0.18236347     0.27700
C938        C  0.35581375  0.75168117  0.16811477    -0.12700
C939        C  0.34405748  0.72595408  0.18676056     0.05800
C940        C  0.35602397  0.72731508  0.21730399    -0.08700
C941        C  0.37811072  0.75580155  0.22819825     0.06700
C942        C  0.38152374  0.78143096  0.21350344    -0.13000
Br943      Br  0.31366916  0.78113362  0.15855326    -0.05100
Br944      Br  0.45217791  0.89271268  0.15119452     0.00500
Br945      Br  0.30891657  0.69171326  0.17035566     0.01000
Br946      Br  0.39745855  0.81787177  0.23702178    -0.03400
Br947      Br  0.33600528  0.82147683  0.09211703     0.01100
Br948      Br  0.44189138  0.82664241  0.17328985    -0.02700
Br949      Br  0.35028326  0.74804731  0.12308699    -0.03600
Br950      Br  0.40853573  0.76121950  0.25773993     0.00400
C951        C  0.38229608  0.85073423  0.38473212     0.01800
C952        C  0.35452054  0.82462328  0.38986515     0.04600
C953        C  0.34586777  0.79938266  0.37098833    -0.11400
C954        C  0.36557201  0.79962665  0.34798669     0.23900
C955        C  0.39406897  0.82502618  0.34421781    -0.12000
C956        C  0.40245149  0.85048532  0.36243178     0.05300
C957        C  0.35753463  0.77248228  0.32942179     0.27700
C958        C  0.36929615  0.75440164  0.33797951    -0.12700
C959        C  0.36466039  0.73048301  0.31874614     0.05800
C960        C  0.34679696  0.72335629  0.29109086    -0.08700
C961        C  0.33277735  0.74030923  0.28448666     0.06700
C962        C  0.33923933  0.76540360  0.30277459    -0.13000
Br963      Br  0.42230495  0.82455650  0.31497941    -0.05100
Br964      Br  0.32989794  0.82206268  0.42500701     0.00500
Br965      Br  0.38582807  0.71034437  0.33023087     0.01000
Br966      Br  0.32355794  0.79073289  0.29107865    -0.03400
Br967      Br  0.44202267  0.88479907  0.35682582     0.01100
Br968      Br  0.30754976  0.76396418  0.37744069    -0.02700
Br969      Br  0.39291454  0.76346573  0.37594494    -0.03600
Br970      Br  0.30283081  0.72875845  0.25226834     0.00400
C971        C  0.46536699  0.61047332  0.37944522     0.01800
C972        C  0.46609036  0.63720880  0.38694941     0.04600
C973        C  0.44790463  0.64549682  0.37046078    -0.11400
C974        C  0.42917749  0.62721701  0.34623734     0.23900
C975        C  0.42744192  0.59992887  0.33957366    -0.12000
C976        C  0.44443516  0.59091359  0.35715277     0.05300
C977        C  0.41066322  0.63628010  0.32824958     0.27700
C978        C  0.37987083  0.62304933  0.33444612    -0.12700
C979        C  0.36183945  0.63001007  0.31571124     0.05800
C980        C  0.37498609  0.65197492  0.29189271    -0.08700
C981        C  0.40662505  0.66749257  0.28859085     0.06700
C982        C  0.42398095  0.65828737  0.30512557    -0.13000
Br983      Br  0.40173909  0.57498737  0.30624008    -0.05100
Br984      Br  0.48921437  0.66076407  0.42214034     0.00500
Br985      Br  0.31922656  0.60756913  0.32243739     0.01000
Br986      Br  0.46620968  0.67576385  0.29607516    -0.03400
Br987      Br  0.43745769  0.55101934  0.35176026     0.01100
Br988      Br  0.44775388  0.68137019  0.38164413    -0.02700
Br989      Br  0.36252690  0.59509178  0.36867918    -0.03600
Br990      Br  0.42760154  0.70432278  0.26593219     0.00400
C991        C  0.37784496  0.65115032  0.21976897     0.01800
C992        C  0.37357458  0.62199817  0.22188326     0.04600
C993        C  0.39020770  0.61338332  0.20281842    -0.11400
C994        C  0.41304886  0.63423656  0.18324877     0.23900
C995        C  0.41811417  0.66339204  0.18155250    -0.12000
C996        C  0.39970592  0.67139642  0.19833484     0.05300
C997        C  0.43083545  0.62516708  0.16331970     0.27700
C998        C  0.45185978  0.61890097  0.17701521    -0.12700
C999        C  0.46727252  0.60869524  0.15825397     0.05800
C1000       C  0.46506428  0.60862633  0.12522159    -0.08700
C1001       C  0.44362217  0.61454407  0.11155070     0.06700
C1002       C  0.42591337  0.62173491  0.13066083    -0.13000
Br1003     Br  0.45062116  0.69244945  0.15596948    -0.05100
Br1004     Br  0.34274701  0.59202913  0.24782416     0.00500
Br1005     Br  0.98687435  0.59006366  0.17831707     0.01000
Br1006     Br  0.39404373  0.62585981  0.11227391    -0.03400
Br1007     Br  0.40570393  0.71059247  0.19144437     0.01100
Br1008     Br  0.38040320  0.57229151  0.20179143    -0.02700
Br1009     Br  0.45945956  0.62410570  0.22158876    -0.03600
Br1010     Br  0.43746466  0.61197657  0.06666692     0.00400
C1011       C  0.13531311  0.53181729  0.36410268     0.01800
C1012       C  0.14056104  0.55973851  0.35240108     0.04600
C1013       C  0.16657668  0.57757157  0.33397139    -0.11400
C1014       C  0.18857182  0.56905229  0.33069119     0.23900
C1015       C  0.18146874  0.54083790  0.34192749    -0.12000
C1016       C  0.15174985  0.52065157  0.34926579     0.05300
C1017       C  0.21793854  0.58846687  0.31480622     0.27700
C1018       C  0.22607753  0.57866401  0.28770178    -0.12700
C1019       C  0.25520448  0.59522476  0.27542986     0.05800
C1020       C  0.27427668  0.62521269  0.28464537    -0.08700
C1021       C  0.26517556  0.63551955  0.31119953     0.06700
C1022       C  0.23857341  0.61626966  0.32755422    -0.13000
Br1023     Br  0.21019469  0.52784282  0.34418494    -0.05100
Br1024     Br  0.11074972  0.57144159  0.35659591     0.00500
Br1025     Br  0.26914330  0.57428568  0.24968954     0.01000
Br1026     Br  0.23062429  0.62774586  0.36802033    -0.03400
Br1027     Br  0.13157763  0.99870775  0.31223519     0.01100
Br1028     Br  0.17167354  0.61258925  0.31285474    -0.02700
Br1029     Br  0.19719453  0.54327642  0.26588466    -0.03600
Br1030     Br  0.28589175  0.67621851  0.32478103     0.00400
C1031       C  0.15825075  0.53864480  0.10859073     0.01800
C1032       C  0.17453062  0.57013559  0.10463309     0.04600
C1033       C  0.19659479  0.58813793  0.12666911    -0.11400
C1034       C  0.20471043  0.57485279  0.15053670     0.23900
C1035       C  0.19309841  0.54390789  0.14967109    -0.12000
C1036       C  0.17321286  0.52695311  0.12571598     0.05300
C1037       C  0.23025374  0.59380999  0.17148632     0.27700
C1038       C  0.25863838  0.59785487  0.16470438    -0.12700
C1039       C  0.28291630  0.61480294  0.18483240     0.05800
C1040       C  0.27980928  0.63022539  0.21090518    -0.08700
C1041       C  0.25178926  0.62887015  0.21485520     0.06700
C1042       C  0.22681312  0.60924476  0.19663238    -0.13000
Br1043     Br  0.20654887  0.52489608  0.17889770    -0.05100
Br1044     Br  0.17547165  0.58812196  0.06453421     0.00500
Br1045     Br  0.31897105  0.61406803  0.17609117     0.01000
Br1046     Br  0.18761217  0.60333103  0.20593058    -0.03400
Br1047     Br  0.18307815  0.00077340  0.10384135     0.01100
Br1048     Br  0.21718639  0.63093582  0.12290210    -0.02700
Br1049     Br  0.26419631  0.58005449  0.12720356    -0.03600
Br1050     Br  0.24730743  0.65576698  0.24222878     0.00400
C1051       C  0.33275350  0.66682955  0.78294474     0.45900
H1052       H  0.33088486  0.66555861  0.80877980    -0.03100
C1053       C  0.33777550  0.66939881  0.72256495     0.46000
H1054       H  0.34072941  0.67058306  0.69691072    -0.03100
C1055       C  0.30278742  0.64547519  0.76634690    -0.16800
C1056       C  0.34259613  0.69820514  0.76975249    -0.16600
C1057       C  0.35602474  0.65881841  0.77059129    -0.16900
C1058       C  0.30538633  0.64714644  0.73382506    -0.16900
C1059       C  0.34575490  0.69970395  0.73730164    -0.16500
C1060       C  0.35835745  0.65974820  0.73841502    -0.16800
O1061       O  0.05819355  0.51950242  0.97897103    -0.72500
O1062       O  0.01983113  0.55644440  0.52154193    -0.73500
O1063       O  0.02745484  0.54703233  0.95850691    -0.62100
O1064       O  0.04983615  0.52832116  0.54178140    -0.70500
O1065       O  0.09638244  0.56055426  0.52997196    -0.70000
O1066       O  0.05955374  0.59410875  0.96746830    -0.61300
O1067       O  0.06269241  0.59357055  0.53570906    -0.73800
O1068       O  0.09332795  0.56204434  0.96165055    -0.72600
Cu1069     Cu  0.03769833  0.53670426  0.00022857     1.04600
Cu1070     Cu  0.08056272  0.58014839  0.99875277     1.04300
C1071       C  0.07898654  0.53347899  0.95986758     0.93700
C1072       C  0.03399023  0.57868317  0.53871600     0.92900
C1073       C  0.03584527  0.57415931  0.95359798     0.85000
C1074       C  0.07739795  0.53696468  0.54473888     0.91300
O1075       O  0.40437669  0.96456348  0.97043435    -0.72500
O1076       O  0.44091061  0.53473362  0.53259646    -0.73500
O1077       O  0.43808669  0.53081211  0.96480374    -0.62100
O1078       O  0.40716012  0.96898207  0.53830425    -0.70500
O1079       O  0.44319304  0.96231740  0.52233053    -0.70000
O1080       O  0.48106630  0.53672633  0.97900875    -0.61300
O1081       O  0.47349171  0.52042047  0.54198572    -0.73800
O1082       O  0.45102643  0.97849976  0.95928221    -0.72600
Cu1083     Cu  0.42012181  0.99979949  0.00152232     1.04600
Cu1084     Cu  0.46332762  0.49948724  0.00062824     1.04300
C1085       C  0.42340294  0.95984131  0.95599472     0.93700
C1086       C  0.46480062  0.53897393  0.54643103     0.92900
C1087       C  0.46676630  0.54457183  0.96179896     0.85000
C1088       C  0.42171126  0.95500236  0.54053755     0.91300
O1089       O  0.46226291  0.94353169  0.97973837    -0.72500
O1090       O  0.03742667  0.98140222  0.52262267    -0.73500
O1091       O  0.02077561  0.97337789  0.95980405    -0.62100
O1092       O  0.47896683  0.95186064  0.54254703    -0.70500
O1093       O  0.46514772  0.90534743  0.53279131    -0.70000
O1094       O  0.03485332  0.94077221  0.96908679    -0.61300
O1095       O  0.03226799  0.93910812  0.53709282    -0.73800
O1096       O  0.46768297  0.90656242  0.96528072    -0.72600
Cu1097     Cu  0.99985721  0.96363073  0.50118217     1.04600
Cu1098     Cu  0.50005785  0.92052407  0.50106457     1.04300
C1099       C  0.45357366  0.92101725  0.96300565     0.93700
C1100       C  0.04605277  0.96764014  0.53960195     0.92900
C1101       C  0.03930397  0.96457310  0.95519216     0.85000
C1102       C  0.46030046  0.92448408  0.54650816     0.91300
C1103       C  0.48349001  0.60045317  0.60490690     0.02700
C1104       C  0.01499182  0.61874409  0.60170662     0.02700
C1105       C  0.03063019  0.61092476  0.58032407    -0.17800
C1106       C  0.01586988  0.58521615  0.56180727     0.02700
C1107       C  0.48374190  0.56628004  0.56560755     0.02700
C1108       C  0.46862119  0.57427917  0.58724274    -0.17800
H1109       H  0.44461771  0.56014448  0.58997431     0.04800
H1110       H  0.05459291  0.62540882  0.57784181     0.04800
C1111       C  0.39823960  0.88240741  0.60559104     0.02700
C1112       C  0.38258029  0.89835902  0.60526506     0.02700
C1113       C  0.39145791  0.92223196  0.58447135    -0.17800
C1114       C  0.41536172  0.93080127  0.56369040     0.02700
C1115       C  0.43235977  0.91561317  0.56516203     0.02700
C1116       C  0.42235049  0.89095977  0.58488982    -0.17800
H1117       H  0.43417515  0.87868613  0.58487788     0.04800
H1118       H  0.37906924  0.93393745  0.58419425     0.04800
C1119       C  0.48393319  0.60127339  0.89736275     0.02700
C1120       C  0.01537706  0.61452154  0.89312785     0.02700
C1121       C  0.03090935  0.60399052  0.91111553    -0.17800
C1122       C  0.01654412  0.58188028  0.93400207     0.02700
C1123       C  0.48454173  0.56874686  0.93841287     0.02700
C1124       C  0.46920214  0.57888416  0.91988487    -0.17800
H1125       H  0.44531517  0.56941908  0.92310344     0.04800
H1126       H  0.05481708  0.61374467  0.90773319     0.04800
C1127       C  0.39146726  0.87791415  0.90380805     0.02700
C1128       C  0.37757557  0.89542066  0.90094980     0.02700
C1129       C  0.38944942  0.92221533  0.91767211    -0.17800
C1130       C  0.41399370  0.93172931  0.93786483     0.02700
C1131       C  0.42758167  0.91334676  0.94148523     0.02700
C1132       C  0.41566314  0.88681861  0.92445995    -0.17800
H1133       H  0.42555200  0.87283907  0.92693009     0.04800
H1134       H  0.37917980  0.93584606  0.91504402     0.04800
C1135       C  0.09836022  0.98247923  0.89322836     0.02700
C1136       C  0.11278519  0.51416927  0.88982205     0.02700
C1137       C  0.10690684  0.52979544  0.91332343    -0.17800
C1138       C  0.08423671  0.51522908  0.93597578     0.02700
C1139       C  0.06644836  0.98307862  0.93511401     0.02700
C1140       C  0.07526793  0.96778537  0.91509709    -0.17800
H1141       H  0.06371841  0.94365325  0.91635904     0.04800
H1142       H  0.12038774  0.55380686  0.91426276     0.04800
C1143       C  0.12669133  0.51893957  0.59540609     0.02700
C1144       C  0.10871835  0.98709102  0.59868075     0.02700
C1145       C  0.08185454  0.97156897  0.58135812    -0.17800
C1146       C  0.07185454  0.98606114  0.56134081     0.02700
C1147       C  0.08674532  0.51809899  0.56290680     0.02700
C1148       C  0.11251502  0.53314026  0.58122285    -0.17800
H1149       H  0.12109064  0.55651763  0.58471966     0.04800
H1150       H  0.06855914  0.94758441  0.58333153     0.04800
C1151       C  0.16396576  0.82875504  0.77947195     0.45900
H1152       H  0.16456657  0.82479578  0.80432286    -0.03100
C1153       C  0.16409564  0.83607451  0.71966814     0.46000
H1154       H  0.16213139  0.83847031  0.69449160    -0.03100
C1155       C  0.13920406  0.80070423  0.76204268    -0.16800
C1156       C  0.15949618  0.85528399  0.77131795    -0.16600
C1157       C  0.19424443  0.83667061  0.76429006    -0.16900
C1158       C  0.13953854  0.80461353  0.73005119    -0.16900
C1159       C  0.15883300  0.85881002  0.73884827    -0.16500
C1160       C  0.19437118  0.83937701  0.73171818    -0.16800
C1161       C  0.11487560  0.96862070  0.62123833     0.01800
C1162       C  0.11676230  0.97415725  0.65392913     0.04600
C1163       C  0.12395990  0.95752354  0.67469601    -0.11400
C1164       C  0.12630429  0.93322997  0.66352114     0.23900
C1165       C  0.12125105  0.92571365  0.63146306    -0.12000
C1166       C  0.11665486  0.94380216  0.61026187     0.05300
C1167       C  0.13520634  0.91610922  0.68484763     0.27700
C1168       C  0.16411099  0.92009251  0.68285509    -0.12700
C1169       C  0.17218722  0.90256376  0.70106395     0.05800
C1170       C  0.15151270  0.88046664  0.72208423    -0.08700
C1171       C  0.12297495  0.87810484  0.72511579     0.06700
C1172       C  0.11469084  0.89510417  0.70609795    -0.13000
Br1173     Br  0.12075827  0.89041968  0.61660448    -0.05100
Br1174     Br  0.10860528  0.00386599  0.67059599     0.00500
Br1175     Br  0.21310435  0.91261900  0.69859686     0.01000
Br1176     Br  0.07447894  0.88865153  0.70778216    -0.03400
Br1177     Br  0.11584039  0.93595210  0.56580562     0.01100
Br1178     Br  0.13118260  0.96844040  0.71837852    -0.02700
Br1179     Br  0.19280303  0.94970205  0.65441106    -0.03600
Br1180     Br  0.09460069  0.85258347  0.75556048     0.00400
C1181       C  0.10764354  0.96327178  0.87681804     0.01800
C1182       C  0.08885270  0.94256026  0.85401316     0.04600
C1183       C  0.09797255  0.92456587  0.83847805    -0.11400
C1184       C  0.12555462  0.92683105  0.84605599     0.23900
C1185       C  0.14337902  0.94611630  0.87022923    -0.12000
C1186       C  0.13412319  0.96381283  0.88603539     0.05300
C1187       C  0.13595134  0.90892257  0.82881342     0.27700
C1188       C  0.13000498  0.88131796  0.84065884    -0.12700
C1189       C  0.14209179  0.86541446  0.82574327     0.05800
C1190       C  0.15697756  0.87542106  0.79609654    -0.08700
C1191       C  0.16790488  0.90570930  0.78919616     0.06700
C1192       C  0.15595749  0.92157665  0.80372442    -0.13000
Br1193     Br  0.18055775  0.94826702  0.88157908    -0.05100
Br1194     Br  0.05176258  0.94049032  0.84240903     0.00500
Br1195     Br  0.14567161  0.83737229  0.85251038     0.01000
Br1196     Br  0.16890117  0.96153860  0.79032826    -0.03400
Br1197     Br  0.15748572  0.98858121  0.92062443     0.01100
Br1198     Br  0.07313106  0.89733512  0.80628668    -0.02700
Br1199     Br  0.10661393  0.86638535  0.87865261    -0.03600
Br1200     Br  0.20663400  0.92892455  0.77111806     0.00400
C1201       C  0.35012245  0.88603679  0.88154292     0.01800
C1202       C  0.32307751  0.88072166  0.89584052     0.04600
C1203       C  0.29730236  0.87205475  0.87747011    -0.11400
C1204       C  0.29768833  0.86668687  0.84510440     0.23900
C1205       C  0.32436293  0.87127098  0.83109874    -0.12000
C1206       C  0.35087883  0.88313462  0.84869973     0.05300
C1207       C  0.27106666  0.85898389  0.82515627     0.27700
C1208       C  0.24521484  0.83081255  0.82700945    -0.12700
C1209       C  0.21986666  0.82408751  0.80860865     0.05800
C1210       C  0.22112161  0.84436131  0.78524364    -0.08700
C1211       C  0.24775149  0.87260189  0.78356191     0.06700
C1212       C  0.27182074  0.88014726  0.80418644    -0.13000
Br1213     Br  0.32467273  0.86154888  0.78755677    -0.05100
Br1214     Br  0.32096128  0.88557501  0.94057267     0.00500
Br1215     Br  0.18470028  0.78597176  0.81543337     0.01000
Br1216     Br  0.30600083  0.92016827  0.80451763    -0.03400
Br1217     Br  0.38844028  0.90004913  0.82676081     0.01100
Br1218     Br  0.26166070  0.86838641  0.89645507    -0.02700
Br1219     Br  0.24507736  0.80109761  0.85440773    -0.03600
Br1220     Br  0.25268125  0.90241858  0.75416202     0.00400
C1221       C  0.11894816  0.77144337  0.77864892     0.01800
C1222       C  0.09582455  0.76814032  0.79926828     0.04600
C1223       C  0.07784867  0.74119921  0.81536505    -0.11400
C1224       C  0.08392860  0.71786076  0.81312645     0.23900
C1225       C  0.10665104  0.72064514  0.79293908    -0.12000
C1226       C  0.12302064  0.74656515  0.77475023     0.05300
C1227       C  0.06708928  0.69093587  0.83308225     0.27700
C1228       C  0.07333598  0.69250753  0.86539530    -0.12800
C1229       C  0.05585928  0.66799058  0.88499672     0.05800
C1230       C  0.03322353  0.64075589  0.87206046    -0.08700
C1231       C  0.02921070  0.63858635  0.83910539     0.06700
C1232       C  0.04482615  0.66396503  0.81999852    -0.13000
Br1233     Br  0.11634060  0.68928342  0.79159886    -0.05100
Br1234     Br  0.08685726  0.79921211  0.80572708     0.00500
Br1235     Br  0.06336533  0.67240100  0.92967932     0.01000
Br1236     Br  0.03581079  0.66190584  0.77576971    -0.03400
Br1237     Br  0.15180694  0.74721283  0.74605664     0.01100
Br1238     Br  0.04447333  0.73580200  0.84087450    -0.02700
Br1239     Br  0.10643486  0.72835063  0.88260479    -0.03600
Br1240     Br  0.50584184  0.60060206  0.81915102     0.00400
C1241       C  0.22087847  0.84482327  0.71060786     0.01800
C1242       C  0.22890626  0.86271903  0.68296039     0.04600
C1243       C  0.25855325  0.87701462  0.67213909    -0.11400
C1244       C  0.27760221  0.86638883  0.68100081     0.23900
C1245       C  0.26755781  0.84336357  0.70313582    -0.12000
C1246       C  0.23970236  0.83291328  0.71821711     0.05300
C1247       C  0.30495630  0.87485584  0.66216466     0.27700
C1248       C  0.30192294  0.86658326  0.63028938    -0.12700
C1249       C  0.32736290  0.87717872  0.61129143     0.05800
C1250       C  0.35600309  0.89026882  0.62520734    -0.08700
C1251       C  0.35917278  0.89755590  0.65741057     0.06700
C1252       C  0.33378485  0.89142803  0.67537860    -0.13000
Br1253     Br  0.29124287  0.82476025  0.71101653    -0.05100
Br1254     Br  0.20053800  0.85844406  0.65076476     0.00500
Br1255     Br  0.32248062  0.87487037  0.56614826     0.01000
Br1256     Br  0.33845523  0.90683859  0.71738465    -0.03400
Br1257     Br  0.22533291  0.79722878  0.74250431     0.01100
Br1258     Br  0.27203619  0.90939586  0.64246234    -0.02700
Br1259     Br  0.26300659  0.83976413  0.61262548    -0.03600
Br1260     Br  0.39831627  0.91779869  0.67633372     0.00400
C1261       C  0.11971822  0.78003725  0.70711697     0.01800
C1262       C  0.13195240  0.76978095  0.68352722     0.04600
C1263       C  0.11328636  0.74449344  0.66538054    -0.11400
C1264       C  0.08256145  0.72777099  0.67179323     0.23900
C1265       C  0.06989570  0.73801196  0.69397932    -0.12000
C1266       C  0.08806723  0.76490959  0.70990366     0.05300
C1267       C  0.06380120  0.69944475  0.65489831     0.27700
C1268       C  0.04710904  0.69870980  0.62847929    -0.12700
C1269       C  0.03138690  0.67241316  0.61090437     0.05800
C1270       C  0.03221373  0.64673157  0.61975250    -0.08700
C1271       C  0.05062133  0.64818567  0.64495913     0.06700
C1272       C  0.06516474  0.67401266  0.66339156    -0.13000
Br1273     Br  0.02746839  0.71479622  0.70260320    -0.05100
Br1274     Br  0.17398802  0.78690765  0.67665133     0.00500
Br1275     Br  0.01187978  0.67275870  0.57256803     0.01000
Br1276     Br  0.08720068  0.67477882  0.70026894    -0.03400
Br1277     Br  0.06826050  0.78232760  0.73109831     0.01100
Br1278     Br  0.12969232  0.73180990  0.63187966    -0.02700
Br1279     Br  0.04669246  0.73410382  0.61585358    -0.03600
Br1280     Br  0.05824232  0.61600917  0.65272541     0.00400
C1281       C  0.39087645  0.85715796  0.62743036     0.01800
C1282       C  0.41361181  0.85719317  0.64603393     0.04600
C1283       C  0.40824206  0.83090715  0.66108040    -0.11400
C1284       C  0.37855215  0.80718640  0.66468728     0.23900
C1285       C  0.35525123  0.80906873  0.64968422    -0.12000
C1286       C  0.36229347  0.83140335  0.62743297     0.05300
C1287       C  0.37192112  0.77982112  0.68236344     0.27700
C1288       C  0.35581378  0.75168115  0.66811477    -0.12700
C1289       C  0.34405753  0.72595407  0.68676056     0.05800
C1290       C  0.35602400  0.72731509  0.71730400    -0.08700
C1291       C  0.37811069  0.75580157  0.72819829     0.06700
C1292       C  0.38152377  0.78143096  0.71350341    -0.13000
Br1293     Br  0.31366919  0.78113357  0.65855330    -0.05100
Br1294     Br  0.45217792  0.89271263  0.65119454     0.00500
Br1295     Br  0.30891662  0.69171323  0.67035569     0.01000
Br1296     Br  0.39745862  0.81787180  0.73702164    -0.03400
Br1297     Br  0.33600530  0.82147679  0.59211705     0.01100
Br1298     Br  0.44189131  0.82664236  0.67328967    -0.02700
Br1299     Br  0.35028312  0.74804727  0.62308702    -0.03600
Br1300     Br  0.40853571  0.76121965  0.75773998     0.00400
C1301       C  0.38229598  0.85073421  0.88473210     0.01800
C1302       C  0.35452048  0.82462324  0.88986516     0.04600
C1303       C  0.34586772  0.79938261  0.87098835    -0.11400
C1304       C  0.36557197  0.79962661  0.84798673     0.23900
C1305       C  0.39406888  0.82502615  0.84421782    -0.12000
C1306       C  0.40245138  0.85048531  0.86243176     0.05300
C1307       C  0.35753462  0.77248225  0.82942181     0.27700
C1308       C  0.36929615  0.75440161  0.83797951    -0.12700
C1309       C  0.36466041  0.73048298  0.81874614     0.05800
C1310       C  0.34679701  0.72335629  0.79109085    -0.08700
C1311       C  0.33277742  0.74030927  0.78448665     0.06700
C1312       C  0.33923936  0.76540364  0.80277459    -0.13000
Br1313     Br  0.42230483  0.82455647  0.81497943    -0.05100
Br1314     Br  0.32989796  0.82206263  0.92500706     0.00500
Br1315     Br  0.38582810  0.71034433  0.83023090     0.01000
Br1316     Br  0.32355794  0.79073299  0.79107870    -0.03400
Br1317     Br  0.44202254  0.88479905  0.85682584     0.01100
Br1318     Br  0.30754977  0.76396412  0.87744073    -0.02700
Br1319     Br  0.39291442  0.76346568  0.87594500    -0.03600
Br1320     Br  0.30283086  0.72875843  0.75226838     0.00400
C1321       C  0.46536703  0.61047327  0.87944519     0.01800
C1322       C  0.46609044  0.63720877  0.88694929     0.04600
C1323       C  0.44790473  0.64549678  0.87046066    -0.11400
C1324       C  0.42917753  0.62721695  0.84623728     0.23900
C1325       C  0.42744198  0.59992882  0.83957360    -0.12000
C1326       C  0.44443520  0.59091353  0.85715275     0.05300
C1327       C  0.41066326  0.63628006  0.82824955     0.27700
C1328       C  0.37987089  0.62304931  0.83444612    -0.12700
C1329       C  0.36183951  0.63001005  0.81571122     0.05800
C1330       C  0.37498616  0.65197488  0.79189265    -0.08700
C1331       C  0.40662513  0.66749253  0.78859076     0.06700
C1332       C  0.42398101  0.65828733  0.80512553    -0.13000
Br1333     Br  0.40173912  0.57498731  0.80624008    -0.05100
Br1334     Br  0.48921444  0.66076406  0.92214017     0.00500
Br1335     Br  0.31922662  0.60756911  0.82243741     0.01000
Br1336     Br  0.46620975  0.67576382  0.79607519    -0.03400
Br1337     Br  0.43745774  0.55101929  0.85176029     0.01100
Br1338     Br  0.44775410  0.68137019  0.88164393    -0.02700
Br1339     Br  0.36252695  0.59509175  0.86867920    -0.03600
Br1340     Br  0.42760166  0.70432289  0.76593224     0.00400
C1341       C  0.37784503  0.65115037  0.71976895     0.01800
C1342       C  0.37357466  0.62199821  0.72188327     0.04600
C1343       C  0.39020780  0.61338339  0.70281845    -0.11400
C1344       C  0.41304890  0.63423661  0.68324876     0.23900
C1345       C  0.41811425  0.66339211  0.68155248    -0.12000
C1346       C  0.39970602  0.67139652  0.69833484     0.05300
C1347       C  0.43083543  0.62516707  0.66331965     0.27700
C1348       C  0.45185982  0.61890104  0.67701512    -0.12700
C1349       C  0.46727254  0.60869528  0.65825391     0.05800
C1350       C  0.46506428  0.60862632  0.62522154    -0.08700
C1351       C  0.44362214  0.61454402  0.61155066     0.06700
C1352       C  0.42591332  0.62173484  0.63066080    -0.13000
Br1353     Br  0.45062117  0.69244941  0.65596932    -0.05100
Br1354     Br  0.34274709  0.59202912  0.74782417     0.00500
Br1355     Br  0.98687436  0.59006380  0.67831711     0.01000
Br1356     Br  0.39404372  0.62585978  0.61227392    -0.03400
Br1357     Br  0.40570393  0.71059258  0.69144438     0.01100
Br1358     Br  0.38040349  0.57229163  0.70179150    -0.02700
Br1359     Br  0.45945972  0.62410590  0.72158860    -0.03600
Br1360     Br  0.43746469  0.61197653  0.56666690     0.00400
C1361       C  0.13531312  0.53181730  0.86410271     0.01800
C1362       C  0.14056108  0.55973852  0.85240108     0.04600
C1363       C  0.16657674  0.57757155  0.83397141    -0.11400
C1364       C  0.18857185  0.56905226  0.83069123     0.23900
C1365       C  0.18146873  0.54083787  0.84192753    -0.12000
C1366       C  0.15174985  0.52065157  0.84926584     0.05300
C1367       C  0.21793860  0.58846681  0.81480629     0.27700
C1368       C  0.22607758  0.57866396  0.78770184    -0.12700
C1369       C  0.25520451  0.59522472  0.77542988     0.05800
C1370       C  0.27427671  0.62521267  0.78464537    -0.08700
C1371       C  0.26517559  0.63551952  0.81119955     0.06700
C1372       C  0.23857346  0.61626961  0.82755427    -0.13000
Br1373     Br  0.21019460  0.52784275  0.84418499    -0.05100
Br1374     Br  0.11074985  0.57144175  0.85659596     0.00500
Br1375     Br  0.26914335  0.57428564  0.74968958     0.01000
Br1376     Br  0.23062433  0.62774582  0.86802037    -0.03400
Br1377     Br  0.13157775  0.99870789  0.81223520     0.01100
Br1378     Br  0.17167361  0.61258923  0.81285476    -0.02700
Br1379     Br  0.19719457  0.54327638  0.76588469    -0.03600
Br1380     Br  0.28589180  0.67621848  0.82478107     0.00400
C1381       C  0.15825077  0.53864484  0.60859077     0.01800
C1382       C  0.17453069  0.57013564  0.60463312     0.04600
C1383       C  0.19659485  0.58813794  0.62666914    -0.11400
C1384       C  0.20471046  0.57485279  0.65053673     0.23900
C1385       C  0.19309842  0.54390790  0.64967111    -0.12000
C1386       C  0.17321288  0.52695314  0.62571602     0.05300
C1387       C  0.23025375  0.59380995  0.67148637     0.27700
C1388       C  0.25863840  0.59785484  0.66470441    -0.12700
C1389       C  0.28291632  0.61480290  0.68483242     0.05800
C1390       C  0.27980929  0.63022535  0.71090520    -0.08700
C1391       C  0.25178927  0.62887011  0.71485524     0.06700
C1392       C  0.22681312  0.60924469  0.69663244    -0.13000
Br1393     Br  0.20654874  0.52489602  0.67889776    -0.05100
Br1394     Br  0.17547177  0.58812210  0.56453426     0.00500
Br1395     Br  0.31897107  0.61406798  0.67609121     0.01000
Br1396     Br  0.18761212  0.60333077  0.70593083    -0.03400
Br1397     Br  0.18307820  0.00077336  0.60384139     0.01100
Br1398     Br  0.21718646  0.63093582  0.62290215    -0.02700
Br1399     Br  0.26419634  0.58005444  0.62720360    -0.03600
Br1400     Br  0.24730746  0.65576694  0.74222881     0.00400
C1401       C  0.83275345  0.16682955  0.28294473     0.45900
H1402       H  0.83088474  0.16555856  0.30877978    -0.03100
C1403       C  0.83777549  0.16939880  0.22256495     0.46000
H1404       H  0.84072942  0.17058305  0.19691071    -0.03100
C1405       C  0.80278741  0.14547522  0.26634686    -0.16800
C1406       C  0.84259608  0.19820514  0.26975248    -0.16600
C1407       C  0.85602467  0.15881840  0.27059132    -0.16900
C1408       C  0.80538632  0.14714645  0.23382502    -0.16900
C1409       C  0.84575488  0.19970395  0.23730162    -0.16500
C1410       C  0.85835742  0.15974818  0.23841505    -0.16800
O1411       O  0.55819371  0.01950249  0.47897117    -0.72500
O1412       O  0.51983112  0.05644439  0.02154198    -0.73500
O1413       O  0.52745484  0.04703230  0.45850689    -0.62100
O1414       O  0.54983609  0.02832111  0.04178137    -0.70500
O1415       O  0.59638236  0.06055415  0.02997192    -0.70000
O1416       O  0.55955376  0.09410871  0.46746829    -0.61300
O1417       O  0.56269240  0.09357049  0.03570913    -0.73800
O1418       O  0.59332807  0.06204438  0.46165056    -0.72600
Cu1419     Cu  0.53769836  0.03670430  0.50022859     1.04600
Cu1420     Cu  0.58056276  0.08014837  0.49875277     1.04300
C1421       C  0.57898666  0.03347905  0.45986765     0.93700
C1422       C  0.53399023  0.07868314  0.03871607     0.92900
C1423       C  0.53584528  0.07415928  0.45359797     0.85000
C1424       C  0.57739787  0.03696459  0.04473886     0.91300
O1425       O  0.90437676  0.46456348  0.47043435    -0.72500
O1426       O  0.94091069  0.03473366  0.03259640    -0.73500
O1427       O  0.93808667  0.03081213  0.46480384    -0.62100
O1428       O  0.90716015  0.46898211  0.03830425    -0.70500
O1429       O  0.94319303  0.46231738  0.02233054    -0.70000
O1430       O  0.98106627  0.03672628  0.47900873    -0.61300
O1431       O  0.97349171  0.02042045  0.04198580    -0.73800
O1432       O  0.95102646  0.47849971  0.45928218    -0.72600
Cu1433     Cu  0.92012190  0.49979948  0.50152232     1.04600
Cu1434     Cu  0.96332757  0.99948726  0.50062829     1.04300
C1435       C  0.92340298  0.45984130  0.45599469     0.93700
C1436       C  0.96480065  0.03897395  0.04643105     0.92900
C1437       C  0.96676626  0.04457180  0.46179897     0.85000
C1438       C  0.92171124  0.45500236  0.04053755     0.91300
O1439       O  0.96226296  0.44353171  0.47973834    -0.72500
O1440       O  0.53742665  0.48140218  0.02262268    -0.73500
O1441       O  0.52077556  0.47337785  0.45980399    -0.62100
O1442       O  0.97896682  0.45186057  0.04254701    -0.70500
O1443       O  0.96514766  0.40534734  0.03279129    -0.70000
O1444       O  0.53485328  0.44077220  0.46908678    -0.61300
O1445       O  0.53226795  0.43910807  0.03709280    -0.73800
O1446       O  0.96768300  0.40656244  0.46528073    -0.72600
Cu1447     Cu  0.49985719  0.46363069  0.00118217     1.04600
Cu1448     Cu  0.00005778  0.42052399  0.00106456     1.04300
C1449       C  0.95357370  0.42101727  0.46300562     0.93700
C1450       C  0.54605275  0.46764009  0.03960193     0.92900
C1451       C  0.53930393  0.46457307  0.45519212     0.85000
C1452       C  0.96030042  0.42448400  0.04650813     0.91300
C1453       C  0.98348999  0.10045313  0.10490696     0.02700
C1454       C  0.51499180  0.11874404  0.10170665     0.02700
C1455       C  0.53063019  0.11092473  0.08032409    -0.17800
C1456       C  0.51586986  0.08521611  0.06180733     0.02700
C1457       C  0.98374192  0.06628005  0.06560759     0.02700
C1458       C  0.96862120  0.07427918  0.08724274    -0.17800
H1459       H  0.94461767  0.06014444  0.08997427     0.04800
H1460       H  0.55459286  0.12540879  0.07784180     0.04800
C1461       C  0.89823959  0.38240742  0.10559101     0.02700
C1462       C  0.88258026  0.39835900  0.10526506     0.02700
C1463       C  0.89145789  0.42223197  0.08447138    -0.17800
C1464       C  0.91536167  0.43080124  0.06369038     0.02700
C1465       C  0.93235971  0.41561314  0.06516197     0.02700
C1466       C  0.92235049  0.39095976  0.08488981    -0.17800
H1467       H  0.93417513  0.37868621  0.08487790     0.04800
H1468       H  0.87906929  0.43393753  0.08419435     0.04800
C1469       C  0.98393315  0.10127340  0.39736280     0.02700
C1470       C  0.51537709  0.11452153  0.39312784     0.02700
C1471       C  0.53090937  0.10399053  0.41111556    -0.17800
C1472       C  0.51654415  0.08188028  0.43400208     0.02700
C1473       C  0.98454167  0.06874680  0.43841286     0.02700
C1474       C  0.96920206  0.07888409  0.41988485    -0.17800
H1475       H  0.94531515  0.06941901  0.42310338     0.04800
H1476       H  0.55481715  0.11374472  0.40773321     0.04800
C1477       C  0.89146726  0.37791414  0.40380805     0.02700
C1478       C  0.87757559  0.39542065  0.40094979     0.02700
C1479       C  0.88944944  0.42221536  0.41767208    -0.17800
C1480       C  0.91399373  0.43172931  0.43786479     0.02700
C1481       C  0.92758170  0.41334680  0.44148520     0.02700
C1482       C  0.91566317  0.38681863  0.42445993    -0.17800
H1483       H  0.92555203  0.37283915  0.42693005     0.04800
H1484       H  0.87917983  0.43584602  0.41504401     0.04800
C1485       C  0.59836020  0.48247918  0.39322834     0.02700
C1486       C  0.61278520  0.01416929  0.38982205     0.02700
C1487       C  0.60690685  0.02979547  0.41332345    -0.17800
C1488       C  0.58423674  0.01522911  0.43597582     0.02700
C1489       C  0.56644835  0.48307860  0.43511398     0.02700
C1490       C  0.57526791  0.46778533  0.41509708    -0.17800
H1491       H  0.56371839  0.44365323  0.41635905     0.04800
H1492       H  0.62038775  0.05380686  0.41426280     0.04800
C1493       C  0.62669129  0.01893951  0.09540605     0.02700
C1494       C  0.60871831  0.48709098  0.09868080     0.02700
C1495       C  0.58185452  0.47156892  0.08135812    -0.17800
C1496       C  0.57185454  0.48606109  0.06134079     0.02700
C1497       C  0.58674524  0.01809891  0.06290678     0.02700
C1498       C  0.61251497  0.03314020  0.08122280    -0.17800
H1499       H  0.62109059  0.05651757  0.08471960     0.04800
H1500       H  0.56855913  0.44758437  0.08333152     0.04800
C1501       C  0.66396573  0.32875502  0.27947200     0.45900
H1502       H  0.66456652  0.32479579  0.30432288    -0.03100
C1503       C  0.66409565  0.33607449  0.21966814     0.46000
H1504       H  0.66213143  0.33847028  0.19449170    -0.03100
C1505       C  0.63920406  0.30070421  0.26204272    -0.16800
C1506       C  0.65949615  0.35528396  0.27131794    -0.16600
C1507       C  0.69424443  0.33667060  0.26429011    -0.16900
C1508       C  0.63953856  0.30461349  0.23005123    -0.16900
C1509       C  0.65883300  0.35881000  0.23884828    -0.16500
C1510       C  0.69437118  0.33937699  0.23171825    -0.16800
C1511       C  0.61487555  0.46862066  0.12123838     0.01800
C1512       C  0.61676225  0.47415721  0.15392919     0.04600
C1513       C  0.62395987  0.45752352  0.17469609    -0.11400
C1514       C  0.62630433  0.43323000  0.16352118     0.23900
C1515       C  0.62125110  0.42571370  0.13146310    -0.12000
C1516       C  0.61665484  0.44380216  0.11026190     0.05300
C1517       C  0.63520638  0.41610924  0.18484761     0.27700
C1518       C  0.66411103  0.42009251  0.18285502    -0.12700
C1519       C  0.67218721  0.40256373  0.20106389     0.05800
C1520       C  0.65151271  0.38046665  0.22208423    -0.08700
C1521       C  0.62297497  0.37810487  0.22511580     0.06700
C1522       C  0.61469086  0.39510416  0.20609792    -0.13000
Br1523     Br  0.62075834  0.39041976  0.11660461    -0.05100
Br1524     Br  0.60860517  0.50386593  0.17059598     0.00500
Br1525     Br  0.71310432  0.41261892  0.19859682     0.01000
Br1526     Br  0.57447891  0.38865145  0.20778211    -0.03400
Br1527     Br  0.61584046  0.43595220  0.06580562     0.01100
Br1528     Br  0.63118254  0.46844030  0.21837865    -0.02700
Br1529     Br  0.69280322  0.44970213  0.15441106    -0.03600
Br1530     Br  0.59460067  0.35258341  0.25556043     0.00400
C1531       C  0.60764353  0.46327173  0.37681802     0.01800
C1532       C  0.58885270  0.44256024  0.35401312     0.04600
C1533       C  0.59797253  0.42456582  0.33847801    -0.11400
C1534       C  0.62555459  0.42683100  0.34605595     0.23900
C1535       C  0.64337898  0.44611623  0.37022921    -0.12000
C1536       C  0.63412316  0.46381275  0.38603537     0.05300
C1537       C  0.63595132  0.40892255  0.32881337     0.27700
C1538       C  0.63000497  0.38131795  0.34065881    -0.12700
C1539       C  0.64209173  0.36541445  0.32574321     0.05800
C1540       C  0.65697752  0.37542103  0.29609651    -0.08700
C1541       C  0.66790485  0.40570927  0.28919612     0.06700
C1542       C  0.65595747  0.42157665  0.30372436    -0.13000
Br1543     Br  0.68055771  0.44826693  0.38157905    -0.05100
Br1544     Br  0.55176252  0.44049022  0.34240920     0.00500
Br1545     Br  0.64567151  0.33737234  0.35251037     0.01000
Br1546     Br  0.66890122  0.46153865  0.29032825    -0.03400
Br1547     Br  0.65748568  0.48858112  0.42062440     0.01100
Br1548     Br  0.57313101  0.39733504  0.30628665    -0.02700
Br1549     Br  0.60661389  0.36638529  0.37865257    -0.03600
Br1550     Br  0.70663396  0.42892447  0.27111803     0.00400
C1551       C  0.85012246  0.38603678  0.38154297     0.01800
C1552       C  0.82307754  0.38072162  0.39584063     0.04600
C1553       C  0.79730239  0.37205478  0.37747025    -0.11400
C1554       C  0.79768831  0.36668686  0.34510453     0.23900
C1555       C  0.82436292  0.37127104  0.33109884    -0.12000
C1556       C  0.85087884  0.38313469  0.34869978     0.05300
C1557       C  0.77106664  0.35898385  0.32515639     0.27700
C1558       C  0.74521483  0.33081251  0.32700950    -0.12700
C1559       C  0.71986668  0.32408752  0.30860868     0.05800
C1560       C  0.72112163  0.34436133  0.28524369    -0.08700
C1561       C  0.74775152  0.37260191  0.28356195     0.06700
C1562       C  0.77182071  0.38014725  0.30418656    -0.13000
Br1563     Br  0.82467269  0.36154878  0.28755693    -0.05100
Br1564     Br  0.82096140  0.38557491  0.44057284     0.00500
Br1565     Br  0.68470030  0.28597183  0.31543335     0.01000
Br1566     Br  0.80600081  0.42016822  0.30451782    -0.03400
Br1567     Br  0.88844025  0.40004906  0.32676080     0.01100
Br1568     Br  0.76166078  0.36838654  0.39645526    -0.02700
Br1569     Br  0.74507715  0.30109754  0.35440792    -0.03600
Br1570     Br  0.75268132  0.40241865  0.25416203     0.00400
C1571       C  0.61894815  0.27144334  0.27864894     0.01800
C1572       C  0.59582450  0.26814028  0.29926825     0.04600
C1573       C  0.57784861  0.24119915  0.31536499    -0.11400
C1574       C  0.58392857  0.21786072  0.31312640     0.23900
C1575       C  0.60665101  0.22064509  0.29293904    -0.12000
C1576       C  0.62302065  0.24656513  0.27475023     0.05300
C1577       C  0.56708924  0.19093585  0.33308222     0.27700
C1578       C  0.57333588  0.19250756  0.36539529    -0.12800
C1579       C  0.55585923  0.16799058  0.38499669     0.05800
C1580       C  0.53322353  0.14075586  0.37206042    -0.08700
C1581       C  0.52921069  0.13858631  0.33910534     0.06700
C1582       C  0.54482616  0.16396500  0.31999848    -0.13000
Br1583     Br  0.61634056  0.18928334  0.29159882    -0.05100
Br1584     Br  0.58685707  0.29921200  0.30572704     0.00500
Br1585     Br  0.56336531  0.17240094  0.42967928     0.01000
Br1586     Br  0.53581083  0.16190592  0.27576968    -0.03400
Br1587     Br  0.65180717  0.24721293  0.24605683     0.01100
Br1588     Br  0.54447311  0.23580189  0.34087423    -0.02700
Br1589     Br  0.60643472  0.22835074  0.38260476    -0.03600
Br1590     Br  0.00584177  0.10060200  0.31915097     0.00400
C1591       C  0.72087847  0.34482325  0.21060794     0.01800
C1592       C  0.72890626  0.36271903  0.18296049     0.04600
C1593       C  0.75855329  0.37701463  0.17213926    -0.11400
C1594       C  0.77760219  0.36638875  0.18100088     0.23900
C1595       C  0.76755776  0.34336348  0.20313584    -0.12000
C1596       C  0.73970234  0.33291324  0.21821718     0.05300
C1597       C  0.80495628  0.37485575  0.16216472     0.27700
C1598       C  0.80192291  0.36658317  0.13028942    -0.12700
C1599       C  0.82736287  0.37717864  0.11129146     0.05800
C1600       C  0.85600308  0.39026878  0.12520738    -0.08700
C1601       C  0.85917280  0.39755585  0.15741063     0.06700
C1602       C  0.83378485  0.39142797  0.17537867    -0.13000
Br1603     Br  0.79124282  0.32476015  0.21101650    -0.05100
Br1604     Br  0.70053801  0.35844399  0.15076475     0.00500
Br1605     Br  0.82248058  0.37487029  0.06614827     0.01000
Br1606     Br  0.83845519  0.40683848  0.21738478    -0.03400
Br1607     Br  0.72533288  0.29722870  0.24250429     0.01100
Br1608     Br  0.77203633  0.40939583  0.14246249    -0.02700
Br1609     Br  0.76300656  0.33976405  0.11262547    -0.03600
Br1610     Br  0.89831633  0.41779856  0.17633386     0.00400
C1611       C  0.61971826  0.28003715  0.20711704     0.01800
C1612       C  0.63195242  0.26978088  0.18352723     0.04600
C1613       C  0.61328636  0.24449341  0.16538050    -0.11400
C1614       C  0.58256146  0.22777097  0.17179319     0.23900
C1615       C  0.56989575  0.23801191  0.19397935    -0.12000
C1616       C  0.58806728  0.26490947  0.20990378     0.05300
C1617       C  0.56380118  0.19944471  0.15489832     0.27700
C1618       C  0.54710906  0.19870975  0.12847928    -0.12700
C1619       C  0.53138692  0.17241312  0.11090435     0.05800
C1620       C  0.53221372  0.14673152  0.11975250    -0.08700
C1621       C  0.55062129  0.14818562  0.14495916     0.06700
C1622       C  0.56516469  0.17401261  0.16339161    -0.13000
Br1623     Br  0.52746850  0.21479611  0.20260339    -0.05100
Br1624     Br  0.67398801  0.28690758  0.17665130     0.00500
Br1625     Br  0.51187985  0.17275879  0.07256800     0.01000
Br1626     Br  0.58720075  0.17477891  0.20026892    -0.03400
Br1627     Br  0.56826050  0.28232752  0.23109828     0.01100
Br1628     Br  0.62969228  0.23180981  0.13187963    -0.02700
Br1629     Br  0.54669261  0.23410379  0.11585353    -0.03600
Br1630     Br  0.55824229  0.11600910  0.15272539     0.00400
C1631       C  0.89087650  0.35715800  0.12743032     0.01800
C1632       C  0.91361186  0.35719319  0.14603387     0.04600
C1633       C  0.90824211  0.33090721  0.16108041    -0.11400
C1634       C  0.87855221  0.30718646  0.16468729     0.23900
C1635       C  0.85525130  0.30906880  0.14968420    -0.12000
C1636       C  0.86229353  0.33140340  0.12743292     0.05300
C1637       C  0.87192116  0.27982117  0.18236344     0.27700
C1638       C  0.85581381  0.25168119  0.16811475    -0.12700
C1639       C  0.84405756  0.22595411  0.18676054     0.05800
C1640       C  0.85602401  0.22731509  0.21730398    -0.08700
C1641       C  0.87811069  0.25580158  0.22819827     0.06700
C1642       C  0.88152378  0.28143100  0.21350343    -0.13000
Br1643     Br  0.81366925  0.28113369  0.15855327    -0.05100
Br1644     Br  0.95217795  0.39271262  0.15119450     0.00500
Br1645     Br  0.80891666  0.19171331  0.17035566     0.01000
Br1646     Br  0.89745865  0.31787184  0.23702177    -0.03400
Br1647     Br  0.83600537  0.32147689  0.09211702     0.01100
Br1648     Br  0.94189138  0.32664249  0.17328986    -0.02700
Br1649     Br  0.85028310  0.24804721  0.12308699    -0.03600
Br1650     Br  0.90853568  0.26121957  0.25773995     0.00400
C1651       C  0.88229598  0.35073417  0.38473213     0.01800
C1652       C  0.85452044  0.32462319  0.38986519     0.04600
C1653       C  0.84586766  0.29938258  0.37098833    -0.11400
C1654       C  0.86557194  0.29962662  0.34798668     0.23900
C1655       C  0.89406890  0.32502615  0.34421780    -0.12000
C1656       C  0.90245139  0.35048530  0.36243177     0.05300
C1657       C  0.85753462  0.27248228  0.32942177     0.27700
C1658       C  0.86929611  0.25440162  0.33797949    -0.12700
C1659       C  0.86466034  0.23048298  0.31874613     0.05800
C1660       C  0.84679697  0.22335630  0.29109083    -0.08700
C1661       C  0.83277741  0.24030929  0.28448662     0.06700
C1662       C  0.83923938  0.26540367  0.30277453    -0.13000
Br1663     Br  0.92230493  0.32455639  0.31497946    -0.05100
Br1664     Br  0.82989777  0.32206255  0.42500700     0.00500
Br1665     Br  0.88582790  0.21034424  0.33023089     0.01000
Br1666     Br  0.82355790  0.29073294  0.29107866    -0.03400
Br1667     Br  0.94202256  0.38479911  0.35682581     0.01100
Br1668     Br  0.80754961  0.26396408  0.37744067    -0.02700
Br1669     Br  0.89291438  0.26346561  0.37594498    -0.03600
Br1670     Br  0.80283091  0.22875853  0.25226832     0.00400
C1671       C  0.96536703  0.11047335  0.37944525     0.01800
C1672       C  0.96609043  0.13720885  0.38694940     0.04600
C1673       C  0.94790470  0.14549685  0.37046075    -0.11400
C1674       C  0.92917754  0.12721705  0.34623734     0.23900
C1675       C  0.92744199  0.09992893  0.33957364    -0.12000
C1676       C  0.94443524  0.09091366  0.35715277     0.05300
C1677       C  0.91066325  0.13628015  0.32824960     0.27700
C1678       C  0.87987086  0.12304938  0.33444614    -0.12700
C1679       C  0.86183947  0.13001008  0.31571124     0.05800
C1680       C  0.87498610  0.15197491  0.29189269    -0.08700
C1681       C  0.90662506  0.16749258  0.28859081     0.06700
C1682       C  0.92398095  0.15828741  0.30512557    -0.13000
Br1683     Br  0.90173920  0.07498745  0.30624007    -0.05100
Br1684     Br  0.98921432  0.16076415  0.42214035     0.00500
Br1685     Br  0.81922657  0.10756903  0.32243737     0.01000
Br1686     Br  0.96620967  0.17576395  0.29607516    -0.03400
Br1687     Br  0.93745780  0.05101941  0.35176025     0.01100
Br1688     Br  0.94775388  0.18137013  0.38164414    -0.02700
Br1689     Br  0.86252686  0.09509187  0.36867920    -0.03600
Br1690     Br  0.92760160  0.20432283  0.26593219     0.00400
C1691       C  0.87784499  0.15115033  0.21976898     0.01800
C1692       C  0.87357460  0.12199818  0.22188330     0.04600
C1693       C  0.89020768  0.11338331  0.20281845    -0.11400
C1694       C  0.91304879  0.13423650  0.18324875     0.23900
C1695       C  0.91811414  0.16339200  0.18155247    -0.12000
C1696       C  0.89970591  0.17139643  0.19833482     0.05300
C1697       C  0.93083535  0.12516695  0.16331970     0.27700
C1698       C  0.95185968  0.11890085  0.17701522    -0.12700
C1699       C  0.96727246  0.10869515  0.15825399     0.05800
C1700       C  0.96506423  0.10862623  0.12522161    -0.08700
C1701       C  0.94362209  0.11454392  0.11155070     0.06700
C1702       C  0.92591328  0.12173475  0.13066082    -0.13000
Br1703     Br  0.95062116  0.19244933  0.15596949    -0.05100
Br1704     Br  0.84274696  0.09202919  0.24782415     0.00500
Br1705     Br  0.48687429  0.09006371  0.17831710     0.01000
Br1706     Br  0.89404369  0.12585969  0.11227389    -0.03400
Br1707     Br  0.90570388  0.21059250  0.19144435     0.01100
Br1708     Br  0.88040327  0.07229153  0.20179146    -0.02700
Br1709     Br  0.95945965  0.12410579  0.22158873    -0.03600
Br1710     Br  0.93746466  0.11197644  0.06666692     0.00400
C1711       C  0.63531311  0.03181734  0.36410268     0.01800
C1712       C  0.64056107  0.05973857  0.35240110     0.04600
C1713       C  0.66657670  0.07757164  0.33397138    -0.11400
C1714       C  0.68857184  0.06905237  0.33069118     0.23900
C1715       C  0.68146875  0.04083798  0.34192748    -0.12000
C1716       C  0.65174988  0.02065165  0.34926581     0.05300
C1717       C  0.71793859  0.08846693  0.31480622     0.27700
C1718       C  0.72607760  0.07866407  0.28770180    -0.12700
C1719       C  0.75520453  0.09522481  0.27542986     0.05800
C1720       C  0.77427671  0.12521275  0.28464533    -0.08700
C1721       C  0.76517562  0.13551962  0.31119952     0.06700
C1722       C  0.73857347  0.11626970  0.32755422    -0.13000
Br1723     Br  0.71019465  0.02784288  0.34418495    -0.05100
Br1724     Br  0.61074980  0.07144170  0.35659613     0.00500
Br1725     Br  0.76914340  0.07428576  0.24968955     0.01000
Br1726     Br  0.73062432  0.12774577  0.36802036    -0.03400
Br1727     Br  0.63157772  0.49870781  0.31223517     0.01100
Br1728     Br  0.67167349  0.11258932  0.31285475    -0.02700
Br1729     Br  0.69719464  0.04327650  0.26588465    -0.03600
Br1730     Br  0.78589184  0.17621859  0.32478104     0.00400
C1731       C  0.65825074  0.03864477  0.10859073     0.01800
C1732       C  0.67453065  0.07013557  0.10463308     0.04600
C1733       C  0.69659483  0.08813788  0.12666910    -0.11400
C1734       C  0.70471044  0.07485275  0.15053669     0.23900
C1735       C  0.69309841  0.04390787  0.14967107    -0.12000
C1736       C  0.67321287  0.02695309  0.12571597     0.05300
C1737       C  0.73025372  0.09380990  0.17148637     0.27700
C1738       C  0.75863840  0.09785484  0.16470440    -0.12700
C1739       C  0.78291633  0.11480295  0.18483237     0.05800
C1740       C  0.77980929  0.13022542  0.21090513    -0.08700
C1741       C  0.75178924  0.12887015  0.21485515     0.06700
C1742       C  0.72681307  0.10924467  0.19663241    -0.13000
Br1743     Br  0.70654880  0.02489611  0.17889774    -0.05100
Br1744     Br  0.67547173  0.08812202  0.06453422     0.00500
Br1745     Br  0.81897104  0.11406792  0.17609119     0.01000
Br1746     Br  0.68761206  0.10333090  0.20593056    -0.03400
Br1747     Br  0.68307808  0.50077333  0.10384136     0.01100
Br1748     Br  0.71718643  0.13093574  0.12290211    -0.02700
Br1749     Br  0.76419640  0.08005455  0.12720354    -0.03600
Br1750     Br  0.74730738  0.15576707  0.24222857     0.00400
C1751       C  0.83275351  0.16682956  0.78294476     0.45900
H1752       H  0.83088485  0.16555858  0.80877982    -0.03100
C1753       C  0.83777549  0.16939882  0.72256497     0.46000
H1754       H  0.84072940  0.17058312  0.69691073    -0.03100
C1755       C  0.80278745  0.14547521  0.76634691    -0.16800
C1756       C  0.84259611  0.19820514  0.76975252    -0.16600
C1757       C  0.85602473  0.15881840  0.77059131    -0.16900
C1758       C  0.80538635  0.14714645  0.73382506    -0.16900
C1759       C  0.84575486  0.19970394  0.73730167    -0.16500
C1760       C  0.85835744  0.15974821  0.73841504    -0.16800
O1761       O  0.55819356  0.01950247  0.97897104    -0.72500
O1762       O  0.51983118  0.05644446  0.52154194    -0.73500
O1763       O  0.52745474  0.04703227  0.95850693    -0.62100
O1764       O  0.54983617  0.02832115  0.54178139    -0.70500
O1765       O  0.59638241  0.06055426  0.52997195    -0.70000
O1766       O  0.55955376  0.09410866  0.96746827    -0.61300
O1767       O  0.56269244  0.09357058  0.53570910    -0.73800
O1768       O  0.59332801  0.06204435  0.96165053    -0.72600
Cu1769     Cu  0.53769828  0.03670428  0.00022857     1.04600
Cu1770     Cu  0.58056273  0.08014831  0.99875277     1.04300
C1771       C  0.57898656  0.03347902  0.95986758     0.93700
C1772       C  0.53399028  0.07868321  0.53871604     0.92900
C1773       C  0.53584524  0.07415924  0.95359796     0.85000
C1774       C  0.57739796  0.03696468  0.54473888     0.91300
O1775       O  0.90437673  0.46456346  0.97043441    -0.72500
O1776       O  0.94091066  0.03473364  0.53259645    -0.73500
O1777       O  0.93808670  0.03081209  0.96480376    -0.62100
O1778       O  0.90716021  0.46898210  0.53830426    -0.70500
O1779       O  0.94319301  0.46231730  0.52233047    -0.70000
O1780       O  0.98106632  0.03672636  0.97900876    -0.61300
O1781       O  0.97349173  0.02042049  0.54198581    -0.73800
O1782       O  0.95102645  0.47849975  0.95928218    -0.72600
Cu1783     Cu  0.92012187  0.49979949  0.00152232     1.04600
Cu1784     Cu  0.96332763  0.99948726  0.00062824     1.04300
C1785       C  0.92340296  0.45984132  0.95599472     0.93700
C1786       C  0.96480065  0.03897396  0.54643107     0.92900
C1787       C  0.96676631  0.04457182  0.96179895     0.85000
C1788       C  0.92171127  0.45500233  0.54053753     0.91300
O1789       O  0.96226292  0.44353172  0.97973838    -0.72500
O1790       O  0.53742668  0.48140219  0.52262266    -0.73500
O1791       O  0.52077560  0.47337786  0.95980400    -0.62100
O1792       O  0.97896675  0.45186054  0.54254700    -0.70500
O1793       O  0.96514768  0.40534732  0.53279134    -0.70000
O1794       O  0.53485340  0.44077226  0.96908684    -0.61300
O1795       O  0.53226796  0.43910807  0.53709280    -0.73800
O1796       O  0.96768296  0.40656245  0.96528074    -0.72600
Cu1797     Cu  0.49985720  0.46363068  0.50118218     1.04600
Cu1798     Cu  0.00005783  0.42052399  0.50106457     1.04300
C1799       C  0.95357365  0.42101727  0.96300566     0.93700
C1800       C  0.54605276  0.46764010  0.53960195     0.92900
C1801       C  0.53930401  0.46457312  0.95519216     0.85000
C1802       C  0.96030041  0.42448399  0.54650815     0.91300
C1803       C  0.98349002  0.10045324  0.60490687     0.02700
C1804       C  0.51499183  0.11874412  0.60170662     0.02700
C1805       C  0.53063024  0.11092482  0.58032405    -0.17800
C1806       C  0.51586991  0.08521618  0.56180731     0.02700
C1807       C  0.98374193  0.06628008  0.56560758     0.02700
C1808       C  0.96862120  0.07427923  0.58724273    -0.17800
H1809       H  0.94461777  0.06014456  0.58997429     0.04800
H1810       H  0.55459287  0.12540887  0.57784176     0.04800
C1811       C  0.89823960  0.38240740  0.60559101     0.02700
C1812       C  0.88258025  0.39835897  0.60526502     0.02700
C1813       C  0.89145790  0.42223192  0.58447134    -0.17800
C1814       C  0.91536170  0.43080124  0.56369039     0.02700
C1815       C  0.93235974  0.41561313  0.56516202     0.02700
C1816       C  0.92235052  0.39095977  0.58488985    -0.17800
H1817       H  0.93417518  0.37868621  0.58487793     0.04800
H1818       H  0.87906921  0.43393749  0.58419428     0.04800
C1819       C  0.98393319  0.10127338  0.89736277     0.02700
C1820       C  0.51537707  0.11452154  0.89312786     0.02700
C1821       C  0.53090931  0.10399050  0.91111554    -0.17800
C1822       C  0.51654413  0.08188025  0.93400205     0.02700
C1823       C  0.98454170  0.06874678  0.93841283     0.02700
C1824       C  0.96920211  0.07888408  0.91988483    -0.17800
H1825       H  0.94531517  0.06941901  0.92310338     0.04800
H1826       H  0.55481720  0.11374473  0.90773319     0.04800
C1827       C  0.89146728  0.37791416  0.90380805     0.02700
C1828       C  0.87757557  0.39542064  0.90094980     0.02700
C1829       C  0.88944943  0.42221537  0.91767207    -0.17800
C1830       C  0.91399372  0.43172933  0.93786481     0.02700
C1831       C  0.92758167  0.41334679  0.94148523     0.02700
C1832       C  0.91566316  0.38681865  0.92445994    -0.17800
H1833       H  0.92555206  0.37283914  0.92693009     0.04800
H1834       H  0.87917985  0.43584603  0.91504397     0.04800
C1835       C  0.59836024  0.48247924  0.89322836     0.02700
C1836       C  0.61278523  0.01416930  0.88982206     0.02700
C1837       C  0.60690682  0.02979544  0.91332342    -0.17800
C1838       C  0.58423673  0.01522910  0.93597580     0.02700
C1839       C  0.56644838  0.48307863  0.93511401     0.02700
C1840       C  0.57526798  0.46778540  0.91509712    -0.17800
H1841       H  0.56371845  0.44365321  0.91635909     0.04800
H1842       H  0.62038772  0.05380695  0.91426273     0.04800
C1843       C  0.62669132  0.01893960  0.59540610     0.02700
C1844       C  0.60871834  0.48709098  0.59868076     0.02700
C1845       C  0.58185451  0.47156896  0.58135817    -0.17800
C1846       C  0.57185450  0.48606109  0.56134085     0.02700
C1847       C  0.58674534  0.01809902  0.56290677     0.02700
C1848       C  0.61251503  0.03314031  0.58122285    -0.17800
H1849       H  0.62109058  0.05651763  0.58471972     0.04800
H1850       H  0.56855906  0.44758431  0.58333160     0.04800
C1851       C  0.66396578  0.32875504  0.77947195     0.45900
H1852       H  0.66456659  0.32479583  0.80432287    -0.03100
C1853       C  0.66409565  0.33607446  0.71966813     0.46000
H1854       H  0.66213141  0.33847025  0.69449157    -0.03100
C1855       C  0.63920408  0.30070422  0.76204271    -0.16800
C1856       C  0.65949619  0.35528398  0.77131791    -0.16600
C1857       C  0.69424446  0.33667061  0.76429006    -0.16900
C1858       C  0.63953855  0.30461349  0.73005121    -0.16900
C1859       C  0.65883301  0.35880999  0.73884823    -0.16500
C1860       C  0.69437119  0.33937699  0.73171818    -0.16800
C1861       C  0.61487559  0.46862066  0.62123834     0.01800
C1862       C  0.61676221  0.47415715  0.65392913     0.04600
C1863       C  0.62395984  0.45752346  0.67469601    -0.11400
C1864       C  0.62630435  0.43322996  0.66352112     0.23900
C1865       C  0.62125114  0.42571367  0.63146304    -0.12000
C1866       C  0.61665487  0.44380215  0.61026187     0.05300
C1867       C  0.63520640  0.41610923  0.68484761     0.27700
C1868       C  0.66411102  0.42009248  0.68285503    -0.12700
C1869       C  0.67218718  0.40256368  0.70106387     0.05800
C1870       C  0.65151269  0.38046660  0.72208419    -0.08700
C1871       C  0.62297496  0.37810488  0.72511580     0.06700
C1872       C  0.61469088  0.39510422  0.70609797    -0.13000
Br1873     Br  0.62075839  0.39041974  0.61660446    -0.05100
Br1874     Br  0.60860520  0.50386589  0.67059599     0.00500
Br1875     Br  0.71310426  0.41261890  0.69859685     0.01000
Br1876     Br  0.57447894  0.38865163  0.70778216    -0.03400
Br1877     Br  0.61584033  0.43595215  0.56580560     0.01100
Br1878     Br  0.63118242  0.46844027  0.71837853    -0.02700
Br1879     Br  0.69280313  0.44970211  0.65441108    -0.03600
Br1880     Br  0.59460065  0.35258356  0.75556047     0.00400
C1881       C  0.60764358  0.46327181  0.87681803     0.01800
C1882       C  0.58885275  0.44256028  0.85401315     0.04600
C1883       C  0.59797260  0.42456588  0.83847807    -0.11400
C1884       C  0.62555468  0.42683108  0.84605600     0.23900
C1885       C  0.64337903  0.44611628  0.87022928    -0.12000
C1886       C  0.63412321  0.46381284  0.88603540     0.05300
C1887       C  0.63595142  0.40892262  0.82881343     0.27700
C1888       C  0.63000505  0.38131802  0.84065884    -0.12700
C1889       C  0.64209176  0.36541447  0.82574322     0.05800
C1890       C  0.65697754  0.37542105  0.79609648    -0.08700
C1891       C  0.66790493  0.40570932  0.78919614     0.06700
C1892       C  0.65595757  0.42157670  0.80372442    -0.13000
Br1893     Br  0.68055772  0.44826691  0.88157911    -0.05100
Br1894     Br  0.55176268  0.44049040  0.84240902     0.00500
Br1895     Br  0.64567155  0.33737233  0.85251039     0.01000
Br1896     Br  0.66890128  0.46153866  0.79032826    -0.03400
Br1897     Br  0.65748566  0.48858129  0.92062443     0.01100
Br1898     Br  0.57313115  0.39733519  0.80628666    -0.02700
Br1899     Br  0.60661404  0.36638544  0.87865263    -0.03600
Br1900     Br  0.70663407  0.42892460  0.77111807     0.00400
C1901       C  0.85012244  0.38603674  0.88154295     0.01800
C1902       C  0.82307748  0.38072157  0.89584055     0.04600
C1903       C  0.79730236  0.37205479  0.87747013    -0.11400
C1904       C  0.79768835  0.36668689  0.84510442     0.23900
C1905       C  0.82436297  0.37127105  0.83109876    -0.12000
C1906       C  0.85087887  0.38313467  0.84869975     0.05300
C1907       C  0.77106668  0.35898386  0.82515628     0.27700
C1908       C  0.74521485  0.33081254  0.82700949    -0.12700
C1909       C  0.71986670  0.32408753  0.80860865     0.05800
C1910       C  0.72112164  0.34436133  0.78524363    -0.08700
C1911       C  0.74775151  0.37260190  0.78356190     0.06700
C1912       C  0.77182076  0.38014723  0.80418642    -0.13000
Br1913     Br  0.82467284  0.36154896  0.78755678    -0.05100
Br1914     Br  0.82096127  0.38557487  0.94057270     0.00500
Br1915     Br  0.68470035  0.28597182  0.81543337     0.01000
Br1916     Br  0.80600087  0.42016819  0.80451762    -0.03400
Br1917     Br  0.88844037  0.40004921  0.82676084     0.01100
Br1918     Br  0.76166066  0.36838651  0.89645506    -0.02700
Br1919     Br  0.74507719  0.30109754  0.85440793    -0.03600
Br1920     Br  0.75268120  0.40241865  0.75416205     0.00400
C1921       C  0.61894817  0.27144337  0.77864897     0.01800
C1922       C  0.59582454  0.26814034  0.79926829     0.04600
C1923       C  0.57784866  0.24119921  0.81536508    -0.11400
C1924       C  0.58392858  0.21786075  0.81312645     0.23900
C1925       C  0.60665102  0.22064510  0.79293909    -0.12000
C1926       C  0.62302066  0.24656514  0.77475029     0.05300
C1927       C  0.56708924  0.19093586  0.83308225     0.27700
C1928       C  0.57333591  0.19250755  0.86539531    -0.12800
C1929       C  0.55585925  0.16799056  0.88499671     0.05800
C1930       C  0.53322351  0.14075586  0.87206045    -0.08700
C1931       C  0.52921066  0.13858632  0.83910537     0.06700
C1932       C  0.54482614  0.16396501  0.81999851    -0.13000
Br1933     Br  0.61634058  0.18928331  0.79159886    -0.05100
Br1934     Br  0.58685719  0.29921214  0.80572707     0.00500
Br1935     Br  0.56336519  0.17240092  0.92967932     0.01000
Br1936     Br  0.53581071  0.16190590  0.77576973    -0.03400
Br1937     Br  0.65180708  0.24721290  0.74605683     0.01100
Br1938     Br  0.54447321  0.23580191  0.84087445    -0.02700
Br1939     Br  0.60643477  0.22835071  0.88260480    -0.03600
Br1940     Br  0.00584183  0.10060196  0.81915102     0.00400
C1941       C  0.72087848  0.34482328  0.71060786     0.01800
C1942       C  0.72890629  0.36271909  0.68296044     0.04600
C1943       C  0.75855327  0.37701465  0.67213914    -0.11400
C1944       C  0.77760221  0.36638883  0.68100082     0.23900
C1945       C  0.76755776  0.34336354  0.70313577    -0.12000
C1946       C  0.73970233  0.33291326  0.71821706     0.05300
C1947       C  0.80495631  0.37485587  0.66216467     0.27700
C1948       C  0.80192294  0.36658332  0.63028936    -0.12700
C1949       C  0.82736289  0.37717872  0.61129142     0.05800
C1950       C  0.85600308  0.39026878  0.62520734    -0.08700
C1951       C  0.85917280  0.39755591  0.65741057     0.06700
C1952       C  0.83378487  0.39142805  0.67537861    -0.13000
Br1953     Br  0.79124273  0.32476013  0.71101651    -0.05100
Br1954     Br  0.70053808  0.35844412  0.65076475     0.00500
Br1955     Br  0.82248062  0.37487026  0.56614826     0.01000
Br1956     Br  0.83845516  0.40683867  0.71738463    -0.03400
Br1957     Br  0.72533298  0.29722883  0.74250433     0.01100
Br1958     Br  0.77203621  0.40939579  0.64246231    -0.02700
Br1959     Br  0.76300661  0.33976402  0.61262550    -0.03600
Br1960     Br  0.89831634  0.41779876  0.67633370     0.00400
C1961       C  0.61971824  0.28003717  0.70711705     0.01800
C1962       C  0.63195240  0.26978089  0.68352727     0.04600
C1963       C  0.61328633  0.24449343  0.66538054    -0.11400
C1964       C  0.58256143  0.22777099  0.67179322     0.23900
C1965       C  0.56989572  0.23801194  0.69397935    -0.12000
C1966       C  0.58806724  0.26490950  0.70990378     0.05300
C1967       C  0.56380117  0.19944474  0.65489834     0.27700
C1968       C  0.54710898  0.19870976  0.62847935    -0.12700
C1969       C  0.53138692  0.17241316  0.61090436     0.05800
C1970       C  0.53221374  0.14673159  0.61975250    -0.08700
C1971       C  0.55062131  0.14818570  0.64495916     0.06700
C1972       C  0.56516477  0.17401269  0.66339157    -0.13000
Br1973     Br  0.52746843  0.21479625  0.70260320    -0.05100
Br1974     Br  0.67398804  0.28690754  0.67665135     0.00500
Br1975     Br  0.51187988  0.17275877  0.57256800     0.01000
Br1976     Br  0.58720079  0.17477890  0.70026892    -0.03400
Br1977     Br  0.56826038  0.28232749  0.73109831     0.01100
Br1978     Br  0.62969226  0.23180996  0.63187961    -0.02700
Br1979     Br  0.54669246  0.23410374  0.61585356    -0.03600
Br1980     Br  0.55824226  0.11600922  0.65272543     0.00400
C1981       C  0.89087647  0.35715798  0.62743032     0.01800
C1982       C  0.91361184  0.35719320  0.64603391     0.04600
C1983       C  0.90824211  0.33090720  0.66108043    -0.11400
C1984       C  0.87855220  0.30718644  0.66468728     0.23900
C1985       C  0.85525128  0.30906879  0.64968420    -0.12000
C1986       C  0.86229347  0.33140340  0.62743292     0.05300
C1987       C  0.87192114  0.27982112  0.68236344     0.27700
C1988       C  0.85581384  0.25168114  0.66811476    -0.12700
C1989       C  0.84405753  0.22595406  0.68676055     0.05800
C1990       C  0.85602396  0.22731506  0.71730401    -0.08700
C1991       C  0.87811067  0.25580153  0.72819830     0.06700
C1992       C  0.88152372  0.28143094  0.71350345    -0.13000
Br1993     Br  0.81366928  0.28113364  0.65855329    -0.05100
Br1994     Br  0.95217788  0.39271273  0.65119456     0.00500
Br1995     Br  0.80891654  0.19171330  0.67035571     0.01000
Br1996     Br  0.89745871  0.31787183  0.73702164    -0.03400
Br1997     Br  0.83600529  0.32147687  0.59211692     0.01100
Br1998     Br  0.94189140  0.32664246  0.67328987    -0.02700
Br1999     Br  0.85028314  0.24804717  0.62308701    -0.03600
Br2000     Br  0.90853570  0.26121953  0.75773996     0.00400
C2001       C  0.88229601  0.35073419  0.88473213     0.01800
C2002       C  0.85452050  0.32462320  0.88986522     0.04600
C2003       C  0.84586771  0.29938256  0.87098839    -0.11400
C2004       C  0.86557195  0.29962663  0.84798670     0.23900
C2005       C  0.89406891  0.32502616  0.84421782    -0.12000
C2006       C  0.90245143  0.35048531  0.86243180     0.05300
C2007       C  0.85753462  0.27248229  0.82942180     0.27700
C2008       C  0.86929619  0.25440170  0.83797950    -0.12700
C2009       C  0.86466040  0.23048304  0.81874616     0.05800
C2010       C  0.84679698  0.22335630  0.79109089    -0.08700
C2011       C  0.83277737  0.24030924  0.78448670     0.06700
C2012       C  0.83923931  0.26540360  0.80277462    -0.13000
Br2013     Br  0.92230492  0.32455654  0.81497943    -0.05100
Br2014     Br  0.82989790  0.32206269  0.92500703     0.00500
Br2015     Br  0.88582805  0.21034440  0.83023091     0.01000
Br2016     Br  0.82355791  0.29073292  0.79107868    -0.03400
Br2017     Br  0.94202262  0.38479910  0.85682585     0.01100
Br2018     Br  0.80754966  0.26396405  0.87744072    -0.02700
Br2019     Br  0.89291452  0.26346578  0.87594498    -0.03600
Br2020     Br  0.80283093  0.22875849  0.75226835     0.00400
C2021       C  0.96536708  0.11047332  0.87944521     0.01800
C2022       C  0.96609051  0.13720885  0.88694928     0.04600
C2023       C  0.94790479  0.14549687  0.87046064    -0.11400
C2024       C  0.92917760  0.12721703  0.84623728     0.23900
C2025       C  0.92744207  0.09992890  0.83957359    -0.12000
C2026       C  0.94443529  0.09091361  0.85715275     0.05300
C2027       C  0.91066330  0.13628013  0.82824956     0.27700
C2028       C  0.87987093  0.12304936  0.83444614    -0.12700
C2029       C  0.86183952  0.13001005  0.81571123     0.05800
C2030       C  0.87498614  0.15197488  0.79189266    -0.08700
C2031       C  0.90662510  0.16749255  0.78859078     0.06700
C2032       C  0.92398100  0.15828739  0.80512556    -0.13000
Br2033     Br  0.90173923  0.07498740  0.80624008    -0.05100
Br2034     Br  0.98921439  0.16076413  0.92214018     0.00500
Br2035     Br  0.81922664  0.10756900  0.82243741     0.01000
Br2036     Br  0.96620972  0.17576392  0.79607518    -0.03400
Br2037     Br  0.93745784  0.05101936  0.85176028     0.01100
Br2038     Br  0.94775404  0.18137025  0.88164393    -0.02700
Br2039     Br  0.86252706  0.09509183  0.86867921    -0.03600
Br2040     Br  0.92760167  0.20432282  0.76593220     0.00400
C2041       C  0.87784499  0.15115037  0.71976896     0.01800
C2042       C  0.87357460  0.12199822  0.72188325     0.04600
C2043       C  0.89020775  0.11338342  0.70281842    -0.11400
C2044       C  0.91304890  0.13423665  0.68324878     0.23900
C2045       C  0.91811424  0.16339213  0.68155251    -0.12000
C2046       C  0.89970597  0.17139649  0.69833485     0.05300
C2047       C  0.93083543  0.12516713  0.66331966     0.27700
C2048       C  0.95185978  0.11890104  0.67701512    -0.12700
C2049       C  0.96727251  0.10869531  0.65825389     0.05800
C2050       C  0.96506428  0.10862639  0.62522152    -0.08700
C2051       C  0.94362215  0.11454412  0.61155065     0.06700
C2052       C  0.92591334  0.12173495  0.63066080    -0.13000
Br2053     Br  0.95062111  0.19244948  0.65596931    -0.05100
Br2054     Br  0.84274700  0.09202918  0.74782417     0.00500
Br2055     Br  0.48687431  0.09006368  0.67831713     0.01000
Br2056     Br  0.89404369  0.12585986  0.61227394    -0.03400
Br2057     Br  0.90570392  0.21059251  0.69144439     0.01100
Br2058     Br  0.88040342  0.07229169  0.70179149    -0.02700
Br2059     Br  0.95945982  0.12410598  0.72158860    -0.03600
Br2060     Br  0.93746463  0.11197662  0.56666691     0.00400
C2061       C  0.63531317  0.03181734  0.86410271     0.01800
C2062       C  0.64056112  0.05973856  0.85240110     0.04600
C2063       C  0.66657675  0.07757162  0.83397141    -0.11400
C2064       C  0.68857190  0.06905235  0.83069123     0.23900
C2065       C  0.68146881  0.04083797  0.84192755    -0.12000
C2066       C  0.65174994  0.02065164  0.84926586     0.05300
C2067       C  0.71793865  0.08846691  0.81480628     0.27700
C2068       C  0.72607766  0.07866401  0.78770190    -0.12700
C2069       C  0.75520458  0.09522479  0.77542994     0.05800
C2070       C  0.77427676  0.12521273  0.78464540    -0.08700
C2071       C  0.76517567  0.13551959  0.81119958     0.06700
C2072       C  0.73857352  0.11626968  0.82755427    -0.13000
Br2073     Br  0.71019470  0.02784285  0.84418499    -0.05100
Br2074     Br  0.61074983  0.07144164  0.85659595     0.00500
Br2075     Br  0.76914346  0.07428571  0.74968977     0.01000
Br2076     Br  0.73062436  0.12774574  0.86802040    -0.03400
Br2077     Br  0.63157777  0.49870778  0.81223522     0.01100
Br2078     Br  0.67167354  0.11258929  0.81285478    -0.02700
Br2079     Br  0.69719469  0.04327647  0.76588471    -0.03600
Br2080     Br  0.78589189  0.17621855  0.82478108     0.00400
C2081       C  0.65825076  0.03864482  0.60859077     0.01800
C2082       C  0.67453067  0.07013560  0.60463311     0.04600
C2083       C  0.69659478  0.08813789  0.62666920    -0.11400
C2084       C  0.70471042  0.07485274  0.65053677     0.23900
C2085       C  0.69309842  0.04390788  0.64967110    -0.12000
C2086       C  0.67321285  0.02695311  0.62571602     0.05300
C2087       C  0.73025373  0.09380990  0.67148644     0.27700
C2088       C  0.75863840  0.09785480  0.66470446    -0.12700
C2089       C  0.78291635  0.11480292  0.68483242     0.05800
C2090       C  0.77980933  0.13022539  0.71090519    -0.08700
C2091       C  0.75178929  0.12887014  0.71485523     0.06700
C2092       C  0.72681310  0.10924466  0.69663251    -0.13000
Br2093     Br  0.70654884  0.02489609  0.67889775    -0.05100
Br2094     Br  0.67547164  0.08812202  0.56453425     0.00500
Br2095     Br  0.81897116  0.11406806  0.67609118     0.01000
Br2096     Br  0.68761211  0.10333085  0.70593081    -0.03400
Br2097     Br  0.68307812  0.50077330  0.60384141     0.01100
Br2098     Br  0.71718628  0.13093573  0.62290235    -0.02700
Br2099     Br  0.76419630  0.08005452  0.62720357    -0.03600
Br2100     Br  0.74730742  0.15576700  0.74222878     0.00400
C2101       C  0.83275348  0.66682954  0.28294472     0.45900
H2102       H  0.83088480  0.66555858  0.30877978    -0.03100
C2103       C  0.83777550  0.66939879  0.22256494     0.46000
H2104       H  0.84072945  0.67058307  0.19691070    -0.03100
C2105       C  0.80278743  0.64547518  0.26634686    -0.16800
C2106       C  0.84259608  0.69820512  0.26975247    -0.16600
C2107       C  0.85602471  0.65881839  0.27059133    -0.16900
C2108       C  0.80538634  0.64714642  0.23382501    -0.16900
C2109       C  0.84575486  0.69970392  0.23730161    -0.16500
C2110       C  0.85835744  0.65974817  0.23841504    -0.16800
O2111       O  0.55819356  0.51950244  0.47897101    -0.72500
O2112       O  0.51983114  0.55644441  0.02154193    -0.73500
O2113       O  0.52745482  0.54703234  0.45850691    -0.62100
O2114       O  0.54983612  0.52832111  0.04178137    -0.70500
O2115       O  0.59638239  0.56055422  0.02997195    -0.70000
O2116       O  0.55955379  0.59410877  0.46746825    -0.61300
O2117       O  0.56269240  0.59357055  0.03570910    -0.73800
O2118       O  0.59332797  0.56204436  0.46165049    -0.72600
Cu2119     Cu  0.53769832  0.53670426  0.50022854     1.04600
Cu2120     Cu  0.58056276  0.58014839  0.49875271     1.04300
C2121       C  0.57898655  0.53347901  0.45986754     0.93700
C2122       C  0.53399023  0.57868317  0.03871603     0.92900
C2123       C  0.53584527  0.57415931  0.45359797     0.85000
C2124       C  0.57739792  0.53696462  0.04473885     0.91300
O2125       O  0.90437668  0.96456341  0.47043439    -0.72500
O2126       O  0.94091069  0.53473367  0.03259643    -0.73500
O2127       O  0.93808673  0.53081213  0.46480384    -0.62100
O2128       O  0.90716014  0.96898207  0.03830422    -0.70500
O2129       O  0.94319297  0.96231732  0.02233043    -0.70000
O2130       O  0.98106633  0.53672630  0.47900876    -0.61300
O2131       O  0.97349168  0.52042043  0.04198582    -0.73800
O2132       O  0.95102640  0.97849973  0.45928217    -0.72600
Cu2133     Cu  0.92012179  0.99979946  0.50152232     1.04600
Cu2134     Cu  0.96332763  0.49948720  0.50062829     1.04300
C2135       C  0.92340292  0.95984128  0.45599470     0.93700
C2136       C  0.96480064  0.53897393  0.04643110     0.92900
C2137       C  0.96676632  0.54457183  0.46179901     0.85000
C2138       C  0.92171122  0.95500229  0.04053746     0.91300
O2139       O  0.96226288  0.94353169  0.47973836    -0.72500
O2140       O  0.53742667  0.98140217  0.02262266    -0.73500
O2141       O  0.52077564  0.97337794  0.45980402    -0.62100
O2142       O  0.97896668  0.95186048  0.04254699    -0.70500
O2143       O  0.96514756  0.90534726  0.03279123    -0.70000
O2144       O  0.53485335  0.94077227  0.46908680    -0.61300
O2145       O  0.53226793  0.93910804  0.03709278    -0.73800
O2146       O  0.96768296  0.90656244  0.46528073    -0.72600
Cu2147     Cu  0.49985723  0.96363069  0.00118217     1.04600
Cu2148     Cu  0.00005776  0.92052395  0.00106451     1.04300
C2149       C  0.95357363  0.92101724  0.46300565     0.93700
C2150       C  0.54605274  0.96764006  0.03960193     0.92900
C2151       C  0.53930399  0.96457315  0.45519214     0.85000
C2152       C  0.96030031  0.92448392  0.04650810     0.91300
C2153       C  0.98349003  0.60045317  0.10490699     0.02700
C2154       C  0.51499178  0.61874407  0.10170659     0.02700
C2155       C  0.53063016  0.61092475  0.08032403    -0.17800
C2156       C  0.51586983  0.58521613  0.06180727     0.02700
C2157       C  0.98374191  0.56628002  0.06560766     0.02700
C2158       C  0.96862120  0.57427920  0.08724280    -0.17800
H2159       H  0.94461771  0.56014453  0.08997433     0.04800
H2160       H  0.55459279  0.62540878  0.07784173     0.04800
C2161       C  0.89823955  0.88240735  0.10559097     0.02700
C2162       C  0.88258017  0.89835890  0.10526494     0.02700
C2163       C  0.89145780  0.92223183  0.08447123    -0.17800
C2164       C  0.91536161  0.93080116  0.06369030     0.02700
C2165       C  0.93235966  0.91561306  0.06516195     0.02700
C2166       C  0.92235045  0.89095969  0.08488979    -0.17800
H2167       H  0.93417510  0.87868613  0.08487790     0.04800
H2168       H  0.87906909  0.93393738  0.08419413     0.04800
C2169       C  0.98393317  0.60127333  0.39736275     0.02700
C2170       C  0.51537705  0.61452152  0.39312782     0.02700
C2171       C  0.53090931  0.60399051  0.41111553    -0.17800
C2172       C  0.51654413  0.58188030  0.43400207     0.02700
C2173       C  0.98454171  0.56874682  0.43841290     0.02700
C2174       C  0.96920209  0.57888405  0.41988483    -0.17800
H2175       H  0.94531515  0.56941895  0.42310334     0.04800
H2176       H  0.55481716  0.61374470  0.40773319     0.04800
C2177       C  0.89146726  0.87791413  0.40380805     0.02700
C2178       C  0.87757554  0.89542061  0.40094979     0.02700
C2179       C  0.88944941  0.92221534  0.41767203    -0.17800
C2180       C  0.91399369  0.93172930  0.43786478     0.02700
C2181       C  0.92758164  0.91334676  0.44148522     0.02700
C2182       C  0.91566314  0.88681862  0.42445993    -0.17800
H2183       H  0.92555203  0.87283910  0.42693009     0.04800
H2184       H  0.87917981  0.93584603  0.41504390     0.04800
C2185       C  0.59836029  0.98247925  0.39322842     0.02700
C2186       C  0.61278520  0.51416925  0.38982203     0.02700
C2187       C  0.60690686  0.52979542  0.41332343    -0.17800
C2188       C  0.58423671  0.51522908  0.43597576     0.02700
C2189       C  0.56644840  0.98307865  0.43511402     0.02700
C2190       C  0.57526802  0.96778538  0.41509719    -0.17800
H2191       H  0.56371853  0.94365328  0.41635918     0.04800
H2192       H  0.62038781  0.55380689  0.41426277     0.04800
C2193       C  0.62669121  0.51893954  0.09540620     0.02700
C2194       C  0.60871835  0.98709094  0.09868071     0.02700
C2195       C  0.58185453  0.97156890  0.08135809    -0.17800
C2196       C  0.57185449  0.98606103  0.06134082     0.02700
C2197       C  0.58674528  0.51809895  0.06290675     0.02700
C2198       C  0.61251493  0.53314024  0.08122290    -0.17800
H2199       H  0.62109050  0.55651758  0.08471975     0.04800
H2200       H  0.56855911  0.94758424  0.08333149     0.04800
C2201       C  0.66396573  0.82875501  0.27947200     0.45900
H2202       H  0.66456651  0.82479575  0.30432287    -0.03100
C2203       C  0.66409565  0.83607449  0.21966815     0.46000
H2204       H  0.66213144  0.83847028  0.19449170    -0.03100
C2205       C  0.63920404  0.80070420  0.26204271    -0.16800
C2206       C  0.65949619  0.85528397  0.27131794    -0.16600
C2207       C  0.69424443  0.83667060  0.26429012    -0.16900
C2208       C  0.63953855  0.80461350  0.23005123    -0.16900
C2209       C  0.65883301  0.85881000  0.23884828    -0.16500
C2210       C  0.69437119  0.83937701  0.23171826    -0.16800
C2211       C  0.61487562  0.96862066  0.12123831     0.01800
C2212       C  0.61676230  0.97415720  0.15392910     0.04600
C2213       C  0.62395992  0.95752349  0.17469597    -0.11400
C2214       C  0.62630434  0.93322993  0.16352109     0.23900
C2215       C  0.62125112  0.92571364  0.13146302    -0.12000
C2216       C  0.61665492  0.94380215  0.11026184     0.05300
C2217       C  0.63520639  0.91610918  0.18484757     0.27700
C2218       C  0.66411101  0.92009243  0.18285500    -0.12700
C2219       C  0.67218721  0.90256367  0.20106387     0.05800
C2220       C  0.65151271  0.88046661  0.22208422    -0.08700
C2221       C  0.62297497  0.87810485  0.22511580     0.06700
C2222       C  0.61469090  0.89510418  0.20609793    -0.13000
Br2223     Br  0.62075835  0.89041970  0.11660443    -0.05100
Br2224     Br  0.60860535  0.00386600  0.17059596     0.00500
Br2225     Br  0.71310432  0.91261885  0.19859683     0.01000
Br2226     Br  0.57447900  0.88865157  0.20778212    -0.03400
Br2227     Br  0.61584047  0.93595213  0.06580558     0.01100
Br2228     Br  0.63118256  0.96844025  0.21837850    -0.02700
Br2229     Br  0.69280309  0.94970206  0.15441105    -0.03600
Br2230     Br  0.59460062  0.85258351  0.25556044     0.00400
C2231       C  0.60764363  0.96327182  0.37681807     0.01800
C2232       C  0.58885277  0.94256028  0.35401324     0.04600
C2233       C  0.59797257  0.92456583  0.33847818    -0.11400
C2234       C  0.62555469  0.92683107  0.34605601     0.23900
C2235       C  0.64337911  0.94611636  0.37022920    -0.12000
C2236       C  0.63412328  0.96381288  0.38603537     0.05300
C2237       C  0.63595140  0.90892259  0.32881340     0.27700
C2238       C  0.63000501  0.88131798  0.34065880    -0.12700
C2239       C  0.64209176  0.86541445  0.32574320     0.05800
C2240       C  0.65697759  0.87542106  0.29609651    -0.08700
C2241       C  0.66790493  0.90570931  0.28919612     0.06700
C2242       C  0.65595754  0.92157667  0.30372438    -0.13000
Br2243     Br  0.68055782  0.94826706  0.38157905    -0.05100
Br2244     Br  0.55176263  0.94049035  0.34240921     0.00500
Br2245     Br  0.64567151  0.83737229  0.35251036     0.01000
Br2246     Br  0.66890123  0.96153862  0.29032823    -0.03400
Br2247     Br  0.65748580  0.98858126  0.42062440     0.01100
Br2248     Br  0.57313109  0.89733512  0.30628684    -0.02700
Br2249     Br  0.60661400  0.86638540  0.37865258    -0.03600
Br2250     Br  0.70663405  0.92892457  0.27111803     0.00400
C2251       C  0.85012239  0.88603668  0.38154294     0.01800
C2252       C  0.82307743  0.88072150  0.39584057     0.04600
C2253       C  0.79730226  0.87205459  0.37747020    -0.11400
C2254       C  0.79768826  0.86668674  0.34510447     0.23900
C2255       C  0.82436290  0.87127094  0.33109877    -0.12000
C2256       C  0.85087881  0.88313460  0.34869974     0.05300
C2257       C  0.77106662  0.85898377  0.32515634     0.27700
C2258       C  0.74521482  0.83081244  0.32700950    -0.12700
C2259       C  0.71986666  0.82408747  0.30860869     0.05800
C2260       C  0.72112160  0.84436130  0.28524370    -0.08700
C2261       C  0.74775150  0.87260187  0.28356196     0.06700
C2262       C  0.77182071  0.88014718  0.30418653    -0.13000
Br2263     Br  0.82467270  0.86154872  0.28755679    -0.05100
Br2264     Br  0.82096133  0.88557504  0.44057268     0.00500
Br2265     Br  0.68470031  0.78597176  0.31543334     0.01000
Br2266     Br  0.80600082  0.92016815  0.30451782    -0.03400
Br2267     Br  0.88844031  0.90004915  0.32676081     0.01100
Br2268     Br  0.76166062  0.86838644  0.39645522    -0.02700
Br2269     Br  0.74507730  0.80109747  0.35440787    -0.03600
Br2270     Br  0.75268134  0.90241861  0.25416202     0.00400
C2271       C  0.61894810  0.77144334  0.27864891     0.01800
C2272       C  0.59582448  0.76814030  0.29926825     0.04600
C2273       C  0.57784862  0.74119919  0.31536505    -0.11400
C2274       C  0.58392852  0.71786072  0.31312642     0.23900
C2275       C  0.60665097  0.72064510  0.29293906    -0.12000
C2276       C  0.62302059  0.74656512  0.27475024     0.05300
C2277       C  0.56708919  0.69093583  0.33308221     0.27700
C2278       C  0.57333584  0.69250753  0.36539528    -0.12800
C2279       C  0.55585916  0.66799058  0.38499669     0.05800
C2280       C  0.53322349  0.64075583  0.37206042    -0.08700
C2281       C  0.52921071  0.63858625  0.33910533     0.06700
C2282       C  0.54482613  0.66396495  0.31999847    -0.13000
Br2283     Br  0.61634065  0.68928342  0.29159884    -0.05100
Br2284     Br  0.58685715  0.79921212  0.30572704     0.00500
Br2285     Br  0.56336521  0.67240104  0.42967929     0.01000
Br2286     Br  0.53581067  0.66190585  0.27576970    -0.03400
Br2287     Br  0.65180703  0.74721287  0.24605680     0.01100
Br2288     Br  0.54447325  0.73580203  0.34087444    -0.02700
Br2289     Br  0.60643473  0.72835066  0.38260475    -0.03600
Br2290     Br  0.00584178  0.60060191  0.31915098     0.00400
C2291       C  0.72087847  0.84482330  0.21060793     0.01800
C2292       C  0.72890624  0.86271904  0.18296045     0.04600
C2293       C  0.75855322  0.87701458  0.17213913    -0.11400
C2294       C  0.77760213  0.86638874  0.18100078     0.23900
C2295       C  0.76755771  0.84336349  0.20313576    -0.12000
C2296       C  0.73970232  0.83291327  0.21821714     0.05300
C2297       C  0.80495622  0.87485573  0.16216461     0.27700
C2298       C  0.80192285  0.86658311  0.13028932    -0.12700
C2299       C  0.82736280  0.87717853  0.11129136     0.05800
C2300       C  0.85600300  0.89026871  0.12520726    -0.08700
C2301       C  0.85917273  0.89755590  0.15741046     0.06700
C2302       C  0.83378478  0.89142800  0.17537851    -0.13000
Br2303     Br  0.79124267  0.82476005  0.21101628    -0.05100
Br2304     Br  0.70053804  0.85844407  0.15076474     0.00500
Br2305     Br  0.82248055  0.87487019  0.06614820     0.01000
Br2306     Br  0.83845511  0.90683860  0.21738456    -0.03400
Br2307     Br  0.72533294  0.79722878  0.24250431     0.01100
Br2308     Br  0.77203617  0.90939573  0.14246228    -0.02700
Br2309     Br  0.76300652  0.83976393  0.11262544    -0.03600
Br2310     Br  0.89831626  0.91779870  0.17633364     0.00400
C2311       C  0.61971824  0.78003719  0.20711704     0.01800
C2312       C  0.63195241  0.76978094  0.18352724     0.04600
C2313       C  0.61328634  0.74449343  0.16538055    -0.11400
C2314       C  0.58256142  0.72777100  0.17179320     0.23900
C2315       C  0.56989570  0.73801199  0.19397928    -0.12000
C2316       C  0.58806723  0.76490953  0.20990373     0.05300
C2317       C  0.56380111  0.69944472  0.15489835     0.27700
C2318       C  0.54710895  0.69870973  0.12847932    -0.12700
C2319       C  0.53138689  0.67241312  0.11090433     0.05800
C2320       C  0.53221371  0.64673155  0.11975246    -0.08700
C2321       C  0.55062122  0.64818565  0.14495917     0.06700
C2322       C  0.56516461  0.67401261  0.16339164    -0.13000
Br2323     Br  0.52746841  0.71479624  0.20260317    -0.05100
Br2324     Br  0.67398807  0.78690768  0.17665131     0.00500
Br2325     Br  0.51187985  0.67275873  0.07256797     0.01000
Br2326     Br  0.58720074  0.67477886  0.20026890    -0.03400
Br2327     Br  0.56826034  0.78232747  0.23109829     0.01100
Br2328     Br  0.62969230  0.73180972  0.13187984    -0.02700
Br2329     Br  0.54669241  0.73410370  0.11585353    -0.03600
Br2330     Br  0.55824222  0.61600918  0.15272539     0.00400
C2331       C  0.89087642  0.85715794  0.12743029     0.01800
C2332       C  0.91361179  0.85719315  0.14603388     0.04600
C2333       C  0.90824205  0.83090715  0.16108040    -0.11400
C2334       C  0.87855213  0.80718641  0.16468727     0.23900
C2335       C  0.85525122  0.80906876  0.14968416    -0.12000
C2336       C  0.86229343  0.83140336  0.12743288     0.05300
C2337       C  0.87192105  0.77982112  0.18236344     0.27700
C2338       C  0.85581380  0.75168116  0.16811473    -0.12700
C2339       C  0.84405754  0.72595406  0.18676050     0.05800
C2340       C  0.85602394  0.72731506  0.21730395    -0.08700
C2341       C  0.87811061  0.75580153  0.22819824     0.06700
C2342       C  0.88152365  0.78143095  0.21350344    -0.13000
Br2343     Br  0.81366923  0.78113360  0.15855325    -0.05100
Br2344     Br  0.95217784  0.89271269  0.15119452     0.00500
Br2345     Br  0.80891666  0.69171324  0.17035564     0.01000
Br2346     Br  0.89745847  0.81787176  0.23702178    -0.03400
Br2347     Br  0.83600525  0.82147682  0.09211688     0.01100
Br2348     Br  0.94189134  0.82664241  0.17328985    -0.02700
Br2349     Br  0.85028319  0.74804730  0.12308697    -0.03600
Br2350     Br  0.90853570  0.76121950  0.25773975     0.00400
C2351       C  0.88229600  0.85073417  0.38473214     0.01800
C2352       C  0.85452046  0.82462320  0.38986519     0.04600
C2353       C  0.84586766  0.79938257  0.37098834    -0.11400
C2354       C  0.86557192  0.79962661  0.34798667     0.23900
C2355       C  0.89406888  0.82502614  0.34421781    -0.12000
C2356       C  0.90245141  0.85048528  0.36243180     0.05300
C2357       C  0.85753458  0.77248225  0.32942178     0.27700
C2358       C  0.86929614  0.75440165  0.33797947    -0.12700
C2359       C  0.86466036  0.73048300  0.31874611     0.05800
C2360       C  0.84679695  0.72335627  0.29109083    -0.08700
C2361       C  0.83277733  0.74030920  0.28448666     0.06700
C2362       C  0.83923926  0.76540356  0.30277460    -0.13000
Br2363     Br  0.92230488  0.82455649  0.31497941    -0.05100
Br2364     Br  0.82989786  0.82206266  0.42500700     0.00500
Br2365     Br  0.88582801  0.71034436  0.33023088     0.01000
Br2366     Br  0.82355787  0.79073287  0.29107865    -0.03400
Br2367     Br  0.94202258  0.88479906  0.35682582     0.01100
Br2368     Br  0.80754964  0.76396404  0.37744069    -0.02700
Br2369     Br  0.89291447  0.76346573  0.37594494    -0.03600
Br2370     Br  0.80283088  0.72875844  0.25226831     0.00400
C2371       C  0.96536704  0.61047326  0.37944521     0.01800
C2372       C  0.96609042  0.63720875  0.38694935     0.04600
C2373       C  0.94790469  0.64549675  0.37046073    -0.11400
C2374       C  0.92917754  0.62721696  0.34623732     0.23900
C2375       C  0.92744199  0.59992883  0.33957364    -0.12000
C2376       C  0.94443524  0.59091356  0.35715276     0.05300
C2377       C  0.91066326  0.63628007  0.32824959     0.27700
C2378       C  0.87987087  0.62304927  0.33444614    -0.12700
C2379       C  0.86183948  0.63001002  0.31571126     0.05800
C2380       C  0.87498612  0.65197491  0.29189274    -0.08700
C2381       C  0.90662508  0.66749257  0.28859087     0.06700
C2382       C  0.92398097  0.65828735  0.30512559    -0.13000
Br2383     Br  0.90173920  0.57498736  0.30624007    -0.05100
Br2384     Br  0.98921437  0.66076409  0.42214019     0.00500
Br2385     Br  0.81922659  0.60756895  0.32243737     0.01000
Br2386     Br  0.96620967  0.67576386  0.29607516    -0.03400
Br2387     Br  0.93745780  0.55101932  0.35176025     0.01100
Br2388     Br  0.94775388  0.68137004  0.38164414    -0.02700
Br2389     Br  0.86252693  0.59509160  0.36867914    -0.03600
Br2390     Br  0.92760163  0.70432278  0.26593218     0.00400
C2391       C  0.87784503  0.65115032  0.21976898     0.01800
C2392       C  0.87357465  0.62199817  0.22188329     0.04600
C2393       C  0.89020778  0.61338333  0.20281845    -0.11400
C2394       C  0.91304891  0.63423657  0.18324879     0.23900
C2395       C  0.91811424  0.66339206  0.18155250    -0.12000
C2396       C  0.89970596  0.67139642  0.19833482     0.05300
C2397       C  0.93083549  0.62516707  0.16331973     0.27700
C2398       C  0.95185981  0.61890095  0.17701523    -0.12700
C2399       C  0.96727258  0.60869525  0.15825400     0.05800
C2400       C  0.96506434  0.60862635  0.12522164    -0.08700
C2401       C  0.94362221  0.61454405  0.11155077     0.06700
C2402       C  0.92591341  0.62173489  0.13066086    -0.13000
Br2403     Br  0.95062126  0.69244945  0.15596950    -0.05100
Br2404     Br  0.84274698  0.59202913  0.24782413     0.00500
Br2405     Br  0.48687425  0.59006365  0.17831708     0.01000
Br2406     Br  0.89404380  0.62585982  0.11227390    -0.03400
Br2407     Br  0.90570387  0.71059245  0.19144435     0.01100
Br2408     Br  0.88040331  0.57229151  0.20179144    -0.02700
Br2409     Br  0.95945966  0.62410571  0.22158875    -0.03600
Br2410     Br  0.93746476  0.61197657  0.06666705     0.00400
C2411       C  0.63531313  0.53181728  0.36410267     0.01800
C2412       C  0.64056108  0.55973850  0.35240107     0.04600
C2413       C  0.66657671  0.57757157  0.33397137    -0.11400
C2414       C  0.68857185  0.56905231  0.33069119     0.23900
C2415       C  0.68146876  0.54083792  0.34192751    -0.12000
C2416       C  0.65174988  0.52065158  0.34926580     0.05300
C2417       C  0.71793860  0.58846688  0.31480624     0.27700
C2418       C  0.72607761  0.57866401  0.28770184    -0.12700
C2419       C  0.75520454  0.59522476  0.27542988     0.05800
C2420       C  0.77427673  0.62521269  0.28464535    -0.08700
C2421       C  0.76517563  0.63551955  0.31119953     0.06700
C2422       C  0.73857349  0.61626964  0.32755423    -0.13000
Br2423     Br  0.71019465  0.52784280  0.34418496    -0.05100
Br2424     Br  0.61074979  0.57144159  0.35659592     0.00500
Br2425     Br  0.76914342  0.57428566  0.24968974     0.01000
Br2426     Br  0.73062432  0.62774569  0.36802036    -0.03400
Br2427     Br  0.63157779  0.99870791  0.31223516     0.01100
Br2428     Br  0.67167349  0.61258924  0.31285474    -0.02700
Br2429     Br  0.69719463  0.54327638  0.26588483    -0.03600
Br2430     Br  0.78589184  0.67621850  0.32478105     0.00400
C2431       C  0.65825066  0.53864476  0.10859085     0.01800
C2432       C  0.67453065  0.57013553  0.10463310     0.04600
C2433       C  0.69659485  0.58813783  0.12666909    -0.11400
C2434       C  0.70471047  0.57485269  0.15053669     0.23900
C2435       C  0.69309842  0.54390782  0.14967107    -0.12000
C2436       C  0.67321279  0.52695303  0.12571605     0.05300
C2437       C  0.73025374  0.59380984  0.17148638     0.27700
C2438       C  0.75863841  0.59785476  0.16470442    -0.12700
C2439       C  0.78291634  0.61480289  0.18483240     0.05800
C2440       C  0.77980929  0.63022535  0.21090515    -0.08700
C2441       C  0.75178924  0.62887009  0.21485519     0.06700
C2442       C  0.72681308  0.60924460  0.19663243    -0.13000
Br2443     Br  0.70654880  0.52489603  0.17889773    -0.05100
Br2444     Br  0.67547157  0.58812193  0.06453424     0.00500
Br2445     Br  0.81897114  0.61406802  0.17609117     0.01000
Br2446     Br  0.68761206  0.60333082  0.20593057    -0.03400
Br2447     Br  0.68307826  0.00077341  0.10384136     0.01100
Br2448     Br  0.71718643  0.63093566  0.12290210    -0.02700
Br2449     Br  0.76419641  0.58005447  0.12720355    -0.03600
Br2450     Br  0.74730737  0.65576694  0.24222874     0.00400
C2451       C  0.83275344  0.66682955  0.78294470     0.45900
H2452       H  0.83088477  0.66555861  0.80877980    -0.03100
C2453       C  0.83777546  0.66939879  0.72256493     0.46000
H2454       H  0.84072937  0.67058305  0.69691070    -0.03100
C2455       C  0.80278738  0.64547518  0.76634688    -0.16800
C2456       C  0.84259605  0.69820512  0.76975244    -0.16600
C2457       C  0.85602467  0.65881838  0.77059129    -0.16900
C2458       C  0.80538629  0.64714644  0.73382503    -0.16900
C2459       C  0.84575485  0.69970393  0.73730160    -0.16500
C2460       C  0.85835739  0.65974816  0.73841501    -0.16800
O2461       O  0.55819362  0.51950244  0.97897115    -0.72500
O2462       O  0.51983116  0.55644436  0.52154193    -0.73500
O2463       O  0.52745483  0.54703232  0.95850692    -0.62100
O2464       O  0.54983614  0.52832113  0.54178133    -0.70500
O2465       O  0.59638239  0.56055420  0.52997182    -0.70000
O2466       O  0.55955384  0.59410874  0.96746827    -0.61300
O2467       O  0.56269238  0.59357057  0.53570904    -0.73800
O2468       O  0.59332802  0.56204435  0.96165060    -0.72600
Cu2469     Cu  0.53769832  0.53670427  0.00022858     1.04600
Cu2470     Cu  0.58056279  0.58014838  0.99875279     1.04300
C2471       C  0.57898658  0.53347901  0.95986765     0.93700
C2472       C  0.53399021  0.57868317  0.53871595     0.92900
C2473       C  0.53584533  0.57415931  0.95359796     0.85000
C2474       C  0.57739793  0.53696463  0.54473878     0.91300
O2475       O  0.90437677  0.96456350  0.97043431    -0.72500
O2476       O  0.94091073  0.53473362  0.53259645    -0.73500
O2477       O  0.93808671  0.53081211  0.96480384    -0.62100
O2478       O  0.90716010  0.96898205  0.53830423    -0.70500
O2479       O  0.94319304  0.96231744  0.52233052    -0.70000
O2480       O  0.98106633  0.53672632  0.97900875    -0.61300
O2481       O  0.97349173  0.52042039  0.54198585    -0.73800
O2482       O  0.95102649  0.97849978  0.95928207    -0.72600
Cu2483     Cu  0.92012187  0.99979949  0.00152227     1.04600
Cu2484     Cu  0.96332761  0.49948725  0.00062830     1.04300
C2485       C  0.92340299  0.95984133  0.95599463     0.93700
C2486       C  0.96480069  0.53897389  0.54643110     0.92900
C2487       C  0.96676631  0.54457183  0.96179901     0.85000
C2488       C  0.92171126  0.95500238  0.54053753     0.91300
O2489       O  0.96226286  0.94353164  0.97973833    -0.72500
O2490       O  0.53742668  0.98140222  0.52262272    -0.73500
O2491       O  0.52077562  0.97337787  0.95980400    -0.62100
O2492       O  0.97896681  0.95186065  0.54254703    -0.70500
O2493       O  0.96514770  0.90534743  0.53279130    -0.70000
O2494       O  0.53485328  0.94077217  0.96908679    -0.61300
O2495       O  0.53226805  0.93910813  0.53709279    -0.73800
O2496       O  0.96768305  0.90656248  0.96528057    -0.72600
Cu2497     Cu  0.49985724  0.96363075  0.50118220     1.04600
Cu2498     Cu  0.00005780  0.92052403  0.50106457     1.04300
C2499       C  0.95357368  0.92101726  0.96300555     0.93700
C2500       C  0.54605280  0.96764014  0.53960196     0.92900
C2501       C  0.53930398  0.96457309  0.95519215     0.85000
C2502       C  0.96030045  0.92448409  0.54650817     0.91300
C2503       C  0.98349000  0.60045314  0.60490696     0.02700
C2504       C  0.51499182  0.61874411  0.60170650     0.02700
C2505       C  0.53063018  0.61092479  0.58032390    -0.17800
C2506       C  0.51586980  0.58521616  0.56180714     0.02700
C2507       C  0.98374195  0.56628002  0.56560763     0.02700
C2508       C  0.96862121  0.57427915  0.58724277    -0.17800
H2509       H  0.94461773  0.56014443  0.58997433     0.04800
H2510       H  0.55459278  0.62540877  0.57784158     0.04800
C2511       C  0.89823958  0.88240741  0.60559100     0.02700
C2512       C  0.88258023  0.89835899  0.60526496     0.02700
C2513       C  0.89145785  0.92223191  0.58447122    -0.17800
C2514       C  0.91536172  0.93080128  0.56369037     0.02700
C2515       C  0.93235977  0.91561320  0.56516203     0.02700
C2516       C  0.92235049  0.89095977  0.58488982    -0.17800
H2517       H  0.93417511  0.87868616  0.58487788     0.04800
H2518       H  0.87906916  0.93393740  0.58419405     0.04800
C2519       C  0.98393314  0.60127338  0.89736277     0.02700
C2520       C  0.51537715  0.61452160  0.89312786     0.02700
C2521       C  0.53090941  0.60399059  0.91111557    -0.17800
C2522       C  0.51654422  0.58188033  0.93400207     0.02700
C2523       C  0.98454167  0.56874684  0.93841290     0.02700
C2524       C  0.96920206  0.57888414  0.91988489    -0.17800
H2525       H  0.94531511  0.56941908  0.92310345     0.04800
H2526       H  0.55481728  0.61374484  0.90773323     0.04800
C2527       C  0.89146731  0.87791417  0.90380796     0.02700
C2528       C  0.87757560  0.89542067  0.90094973     0.02700
C2529       C  0.88944942  0.92221535  0.91767206    -0.17800
C2530       C  0.91399371  0.93172929  0.93786479     0.02700
C2531       C  0.92758168  0.91334677  0.94148516     0.02700
C2532       C  0.91566320  0.88681866  0.92445984    -0.17800
H2533       H  0.92555213  0.87283913  0.92692995     0.04800
H2534       H  0.87917987  0.93584603  0.91504398     0.04800
C2535       C  0.59836023  0.98247923  0.89322836     0.02700
C2536       C  0.61278524  0.51416931  0.88982208     0.02700
C2537       C  0.60690684  0.52979547  0.91332345    -0.17800
C2538       C  0.58423670  0.51522910  0.93597580     0.02700
C2539       C  0.56644842  0.98307861  0.93511405     0.02700
C2540       C  0.57526799  0.96778537  0.91509714    -0.17800
H2541       H  0.56371848  0.94365324  0.91635906     0.04800
H2542       H  0.62038773  0.55380687  0.91426281     0.04800
C2543       C  0.62669128  0.51893956  0.59540610     0.02700
C2544       C  0.60871840  0.98709105  0.59868075     0.02700
C2545       C  0.58185456  0.97156900  0.58135816    -0.17800
C2546       C  0.57185457  0.98606115  0.56134084     0.02700
C2547       C  0.58674529  0.51809897  0.56290675     0.02700
C2548       C  0.61251495  0.53314026  0.58122286    -0.17800
H2549       H  0.62109052  0.55651761  0.58471968     0.04800
H2550       H  0.56855916  0.94758444  0.58333158     0.04800
C2551       C  0.66396576  0.82875504  0.77947193     0.45900
H2552       H  0.66456653  0.82479582  0.80432285    -0.03100
C2553       C  0.66409564  0.83607453  0.71966812     0.46000
H2554       H  0.66213138  0.83847034  0.69449161    -0.03100
C2555       C  0.63920408  0.80070423  0.76204265    -0.16800
C2556       C  0.65949619  0.85528400  0.77131792    -0.16600
C2557       C  0.69424444  0.83667062  0.76429004    -0.16900
C2558       C  0.63953858  0.80461353  0.73005115    -0.16900
C2559       C  0.65883300  0.85881004  0.73884826    -0.16500
C2560       C  0.69437118  0.83937704  0.73171817    -0.16800
C2561       C  0.61487565  0.96862073  0.62123834     0.01800
C2562       C  0.61676230  0.97415726  0.65392913     0.04600
C2563       C  0.62395992  0.95752357  0.67469601    -0.11400
C2564       C  0.62630434  0.93323000  0.66352114     0.23900
C2565       C  0.62125114  0.92571369  0.63146307    -0.12000
C2566       C  0.61665495  0.94380222  0.61026187     0.05300
C2567       C  0.63520636  0.91610924  0.68484760     0.27700
C2568       C  0.66411102  0.92009256  0.68285506    -0.12700
C2569       C  0.67218722  0.90256380  0.70106394     0.05800
C2570       C  0.65151271  0.88046669  0.72208425    -0.08700
C2571       C  0.62297493  0.87810485  0.72511577     0.06700
C2572       C  0.61469081  0.89510413  0.70609787    -0.13000
Br2573     Br  0.62075838  0.89041969  0.61660464    -0.05100
Br2574     Br  0.60860520  0.00386597  0.67059598     0.00500
Br2575     Br  0.71310432  0.91261901  0.69859686     0.01000
Br2576     Br  0.57447889  0.88865154  0.70778214    -0.03400
Br2577     Br  0.61584044  0.93595226  0.56580561     0.01100
Br2578     Br  0.63118253  0.96844039  0.71837852    -0.02700
Br2579     Br  0.69280320  0.94970222  0.65441110    -0.03600
Br2580     Br  0.59460064  0.85258349  0.75556046     0.00400
C2581       C  0.60764352  0.96327178  0.87681802     0.01800
C2582       C  0.58885266  0.94256026  0.85401314     0.04600
C2583       C  0.59797252  0.92456587  0.83847803    -0.11400
C2584       C  0.62555460  0.92683105  0.84605597     0.23900
C2585       C  0.64337897  0.94611629  0.87022923    -0.12000
C2586       C  0.63412315  0.96381282  0.88603539     0.05300
C2587       C  0.63595134  0.90892259  0.82881337     0.27700
C2588       C  0.63000487  0.88131792  0.84065869    -0.12700
C2589       C  0.64209161  0.86541438  0.82574312     0.05800
C2590       C  0.65697756  0.87542105  0.79609649    -0.08700
C2591       C  0.66790494  0.90570932  0.78919617     0.06700
C2592       C  0.65595752  0.92157667  0.80372439    -0.13000
Br2593     Br  0.68055769  0.94826702  0.88157909    -0.05100
Br2594     Br  0.55176252  0.94049032  0.84240904     0.00500
Br2595     Br  0.64567138  0.83737226  0.85251035     0.01000
Br2596     Br  0.66890111  0.96153859  0.79032824    -0.03400
Br2597     Br  0.65748565  0.98858121  0.92062444     0.01100
Br2598     Br  0.57313100  0.89733512  0.80628668    -0.02700
Br2599     Br  0.60661382  0.86638534  0.87865241    -0.03600
Br2600     Br  0.70663409  0.92892456  0.77111808     0.00400
C2601       C  0.85012247  0.88603682  0.88154288     0.01800
C2602       C  0.82307753  0.88072169  0.89584049     0.04600
C2603       C  0.79730236  0.87205477  0.87747010    -0.11400
C2604       C  0.79768834  0.86668687  0.84510438     0.23900
C2605       C  0.82436295  0.87127098  0.83109873    -0.12000
C2606       C  0.85087886  0.88313464  0.84869970     0.05300
C2607       C  0.77106668  0.85898388  0.82515626     0.27700
C2608       C  0.74521486  0.83081255  0.82700947    -0.12700
C2609       C  0.71986670  0.82408753  0.80860863     0.05800
C2610       C  0.72112164  0.84436132  0.78524362    -0.08700
C2611       C  0.74775149  0.87260191  0.78356193     0.06700
C2612       C  0.77182075  0.88014728  0.80418645    -0.13000
Br2613     Br  0.82467283  0.86154887  0.78755677    -0.05100
Br2614     Br  0.82096136  0.88557500  0.94057266     0.00500
Br2615     Br  0.68470028  0.78597191  0.81543340     0.01000
Br2616     Br  0.80600091  0.92016826  0.80451761    -0.03400
Br2617     Br  0.88844036  0.90004912  0.82676081     0.01100
Br2618     Br  0.76166065  0.86838642  0.89645507    -0.02700
Br2619     Br  0.74507728  0.80109763  0.85440793    -0.03600
Br2620     Br  0.75268120  0.90241858  0.75416203     0.00400
C2621       C  0.61894817  0.77144336  0.77864888     0.01800
C2622       C  0.59582455  0.76814031  0.79926824     0.04600
C2623       C  0.57784871  0.74119920  0.81536503    -0.11400
C2624       C  0.58392867  0.71786078  0.81312645     0.23900
C2625       C  0.60665113  0.72064516  0.79293911    -0.12000
C2626       C  0.62302072  0.74656517  0.77475024     0.05300
C2627       C  0.56708934  0.69093591  0.83308226     0.27700
C2628       C  0.57333601  0.69250762  0.86539532    -0.12800
C2629       C  0.55585934  0.66799063  0.88499672     0.05800
C2630       C  0.53322361  0.64075592  0.87206045    -0.08700
C2631       C  0.52921082  0.63858636  0.83910538     0.06700
C2632       C  0.54482626  0.66396504  0.81999851    -0.13000
Br2633     Br  0.61634071  0.68928343  0.79159887    -0.05100
Br2634     Br  0.58685718  0.79921207  0.80572707     0.00500
Br2635     Br  0.56336529  0.67240104  0.92967933     0.01000
Br2636     Br  0.53581091  0.66190583  0.77576971    -0.03400
Br2637     Br  0.65180704  0.74721283  0.74605664     0.01100
Br2638     Br  0.54447316  0.73580180  0.84087426    -0.02700
Br2639     Br  0.60643486  0.72835080  0.88260478    -0.03600
Br2640     Br  0.00584172  0.60060206  0.81915101     0.00400
C2641       C  0.72087845  0.84482331  0.71060785     0.01800
C2642       C  0.72890625  0.86271912  0.68296041     0.04600
C2643       C  0.75855324  0.87701465  0.67213910    -0.11400
C2644       C  0.77760216  0.86638881  0.68100079     0.23900
C2645       C  0.76755774  0.84336355  0.70313579    -0.12000
C2646       C  0.73970230  0.83291329  0.71821709     0.05300
C2647       C  0.80495625  0.87485579  0.66216462     0.27700
C2648       C  0.80192286  0.86658320  0.63028933    -0.12700
C2649       C  0.82736283  0.87717865  0.61129138     0.05800
C2650       C  0.85600305  0.89026883  0.62520727    -0.08700
C2651       C  0.85917277  0.89755590  0.65741051     0.06700
C2652       C  0.83378482  0.89142798  0.67537856    -0.13000
Br2653     Br  0.79124267  0.82476004  0.71101631    -0.05100
Br2654     Br  0.70053797  0.85844409  0.65076476     0.00500
Br2655     Br  0.82248059  0.87487016  0.56614823     0.01000
Br2656     Br  0.83845515  0.90683857  0.71738461    -0.03400
Br2657     Br  0.72533284  0.79722879  0.74250429     0.01100
Br2658     Br  0.77203629  0.90939587  0.64246233    -0.02700
Br2659     Br  0.76300647  0.83976396  0.61262549    -0.03600
Br2660     Br  0.89831630  0.91779865  0.67633368     0.00400
C2661       C  0.61971827  0.78003724  0.70711693     0.01800
C2662       C  0.63195242  0.76978095  0.68352714     0.04600
C2663       C  0.61328637  0.74449342  0.66538049    -0.11400
C2664       C  0.58256147  0.72777099  0.67179316     0.23900
C2665       C  0.56989576  0.73801199  0.69397927    -0.12000
C2666       C  0.58806728  0.76490959  0.70990365     0.05300
C2667       C  0.56380118  0.69944476  0.65489825     0.27700
C2668       C  0.54710904  0.69870982  0.62847922    -0.12700
C2669       C  0.53138692  0.67241320  0.61090424     0.05800
C2670       C  0.53221378  0.64673162  0.61975234    -0.08700
C2671       C  0.55062133  0.64818570  0.64495902     0.06700
C2672       C  0.56516468  0.67401265  0.66339152    -0.13000
Br2673     Br  0.52746848  0.71479621  0.70260321    -0.05100
Br2674     Br  0.67398802  0.78690769  0.67665111     0.00500
Br2675     Br  0.51188000  0.67275890  0.57256780     0.01000
Br2676     Br  0.58720059  0.67477881  0.70026892    -0.03400
Br2677     Br  0.56826049  0.78232759  0.73109828     0.01100
Br2678     Br  0.62969227  0.73180987  0.63187961    -0.02700
Br2679     Br  0.54669256  0.73410387  0.61585354    -0.03600
Br2680     Br  0.55824225  0.61600917  0.65272539     0.00400
C2681       C  0.89087643  0.85715795  0.62743031     0.01800
C2682       C  0.91361178  0.85719314  0.64603389     0.04600
C2683       C  0.90824200  0.83090714  0.66108043    -0.11400
C2684       C  0.87855208  0.80718639  0.66468729     0.23900
C2685       C  0.85525118  0.80906875  0.64968417    -0.12000
C2686       C  0.86229343  0.83140336  0.62743289     0.05300
C2687       C  0.87192103  0.77982110  0.68236344     0.27700
C2688       C  0.85581374  0.75168115  0.66811475    -0.12700
C2689       C  0.84405748  0.72595406  0.68676052     0.05800
C2690       C  0.85602395  0.72731506  0.71730395    -0.08700
C2691       C  0.87811068  0.75580155  0.72819822     0.06700
C2692       C  0.88152368  0.78143094  0.71350339    -0.13000
Br2693     Br  0.81366911  0.78113356  0.65855308    -0.05100
Br2694     Br  0.95217787  0.89271264  0.65119455     0.00500
Br2695     Br  0.80891672  0.69171320  0.67035548     0.01000
Br2696     Br  0.89745853  0.81787176  0.73702165    -0.03400
Br2697     Br  0.83600529  0.82147680  0.59211689     0.01100
Br2698     Br  0.94189124  0.82664236  0.67328989    -0.02700
Br2699     Br  0.85028324  0.74804728  0.62308698    -0.03600
Br2700     Br  0.90853582  0.76121964  0.75773978     0.00400
C2701       C  0.88229603  0.85073422  0.88473204     0.01800
C2702       C  0.85452050  0.82462325  0.88986507     0.04600
C2703       C  0.84586771  0.79938264  0.87098821    -0.11400
C2704       C  0.86557194  0.79962666  0.84798656     0.23900
C2705       C  0.89406890  0.82502618  0.84421771    -0.12000
C2706       C  0.90245142  0.85048532  0.86243170     0.05300
C2707       C  0.85753460  0.77248230  0.82942166     0.27700
C2708       C  0.86929612  0.75440166  0.83797939    -0.12700
C2709       C  0.86466038  0.73048302  0.81874604     0.05800
C2710       C  0.84679693  0.72335628  0.79109076    -0.08700
C2711       C  0.83277734  0.74030926  0.78448654     0.06700
C2712       C  0.83923933  0.76540365  0.80277444    -0.13000
Br2713     Br  0.92230492  0.82455646  0.81497943    -0.05100
Br2714     Br  0.82989788  0.82206264  0.92500686     0.00500
Br2715     Br  0.88582802  0.71034433  0.83023088     0.01000
Br2716     Br  0.82355803  0.79073304  0.79107845    -0.03400
Br2717     Br  0.94202264  0.88479903  0.85682584     0.01100
Br2718     Br  0.80754971  0.76396414  0.87744051    -0.02700
Br2719     Br  0.89291431  0.76346567  0.87594495    -0.03600
Br2720     Br  0.80283089  0.72875862  0.75226815     0.00400
C2721       C  0.96536701  0.61047330  0.87944522     0.01800
C2722       C  0.96609037  0.63720876  0.88694945     0.04600
C2723       C  0.94790465  0.64549679  0.87046084    -0.11400
C2724       C  0.92917751  0.62721701  0.84623738     0.23900
C2725       C  0.92744193  0.59992887  0.83957367    -0.12000
C2726       C  0.94443517  0.59091358  0.85715279     0.05300
C2727       C  0.91066325  0.63628013  0.82824963     0.27700
C2728       C  0.87987085  0.62304933  0.83444615    -0.12700
C2729       C  0.86183946  0.63001003  0.81571121     0.05800
C2730       C  0.87498611  0.65197488  0.79189267    -0.08700
C2731       C  0.90662508  0.66749258  0.78859083     0.06700
C2732       C  0.92398097  0.65828738  0.80512558    -0.13000
Br2733     Br  0.90173907  0.57498735  0.80624012    -0.05100
Br2734     Br  0.98921435  0.66076403  0.92214038     0.00500
Br2735     Br  0.81922657  0.60756911  0.82243741     0.01000
Br2736     Br  0.96620969  0.67576383  0.79607518    -0.03400
Br2737     Br  0.93745767  0.55101931  0.85176029     0.01100
Br2738     Br  0.94775402  0.68137019  0.88164417    -0.02700
Br2739     Br  0.86252688  0.59509176  0.86867920    -0.03600
Br2740     Br  0.92760159  0.70432290  0.76593225     0.00400
C2741       C  0.87784500  0.65115033  0.71976896     0.01800
C2742       C  0.87357461  0.62199818  0.72188327     0.04600
C2743       C  0.89020775  0.61338336  0.70281843    -0.11400
C2744       C  0.91304890  0.63423658  0.68324879     0.23900
C2745       C  0.91811427  0.66339207  0.68155254    -0.12000
C2746       C  0.89970600  0.67139645  0.69833487     0.05300
C2747       C  0.93083544  0.62516705  0.66331973     0.27700
C2748       C  0.95185977  0.61890093  0.67701524    -0.12700
C2749       C  0.96727251  0.60869523  0.65825399     0.05800
C2750       C  0.96506423  0.60862624  0.62522161    -0.08700
C2751       C  0.94362206  0.61454389  0.61155073     0.06700
C2752       C  0.92591332  0.62173482  0.63066086    -0.13000
Br2753     Br  0.95062131  0.69244942  0.65596953    -0.05100
Br2754     Br  0.84274701  0.59202912  0.74782416     0.00500
Br2755     Br  0.48687439  0.59006383  0.67831708     0.01000
Br2756     Br  0.89404370  0.62585977  0.61227395    -0.03400
Br2757     Br  0.90570393  0.71059245  0.69144438     0.01100
Br2758     Br  0.88040342  0.57229162  0.70179149    -0.02700
Br2759     Br  0.95945969  0.62410568  0.72158878    -0.03600
Br2760     Br  0.93746452  0.61197631  0.56666696     0.00400
C2761       C  0.63531319  0.53181734  0.86410274     0.01800
C2762       C  0.64056111  0.55973856  0.85240113     0.04600
C2763       C  0.66657676  0.57757159  0.83397145    -0.11400
C2764       C  0.68857188  0.56905230  0.83069125     0.23900
C2765       C  0.68146880  0.54083791  0.84192753    -0.12000
C2766       C  0.65174992  0.52065161  0.84926584     0.05300
C2767       C  0.71793860  0.58846684  0.81480627     0.27700
C2768       C  0.72607754  0.57866398  0.78770181    -0.12700
C2769       C  0.75520447  0.59522473  0.77542985     0.05800
C2770       C  0.77427669  0.62521266  0.78464536    -0.08700
C2771       C  0.76517561  0.63551951  0.81119957     0.06700
C2772       C  0.73857348  0.61626962  0.82755425    -0.13000
Br2773     Br  0.71019469  0.52784277  0.84418498    -0.05100
Br2774     Br  0.61074984  0.57144175  0.85659616     0.00500
Br2775     Br  0.76914327  0.57428563  0.74968957     0.01000
Br2776     Br  0.73062443  0.62774581  0.86802039    -0.03400
Br2777     Br  0.63157785  0.99870788  0.81223520     0.01100
Br2778     Br  0.67167354  0.61258923  0.81285477    -0.02700
Br2779     Br  0.69719450  0.54327638  0.76588469    -0.03600
Br2780     Br  0.78589174  0.67621848  0.82478105     0.00400
C2781       C  0.65825074  0.53864480  0.60859077     0.01800
C2782       C  0.67453062  0.57013559  0.60463314     0.04600
C2783       C  0.69659478  0.58813792  0.62666915    -0.11400
C2784       C  0.70471045  0.57485278  0.65053671     0.23900
C2785       C  0.69309846  0.54390789  0.64967107    -0.12000
C2786       C  0.67321288  0.52695311  0.62571600     0.05300
C2787       C  0.73025374  0.59380996  0.67148633     0.27700
C2788       C  0.75863837  0.59785481  0.66470440    -0.12700
C2789       C  0.78291628  0.61480288  0.68483242     0.05800
C2790       C  0.77980926  0.63022535  0.71090518    -0.08700
C2791       C  0.75178926  0.62887014  0.71485517     0.06700
C2792       C  0.72681312  0.60924476  0.69663235    -0.13000
Br2793     Br  0.70654884  0.52489604  0.67889773    -0.05100
Br2794     Br  0.67547163  0.58812193  0.56453424     0.00500
Br2795     Br  0.81897104  0.61406798  0.67609120     0.01000
Br2796     Br  0.68761215  0.60333099  0.70593060    -0.03400
Br2797     Br  0.68307814  0.00077338  0.60384139     0.01100
Br2798     Br  0.71718638  0.63093581  0.62290214    -0.02700
Br2799     Br  0.76419629  0.58005444  0.62720358    -0.03600
Br2800     Br  0.74730751  0.65576713  0.74222858     0.00400
loop_ 
_geom_bond_atom_site_label_1 
_geom_bond_atom_site_label_2 
_geom_bond_distance 
_geom_bond_site_symmetry_2 
_ccdc_geom_bond_type 
C1            H2   1.105       .  S
C1            C7   1.550       .  S
C1            C6   1.551       .  S
C1            C5   1.551       .  S
C3            H4   1.102       .  S
C3            C9   1.549       .  S
C3            C8   1.557       .  S
C3           C10   1.543       .  S
C5            C8   1.391       .  D
C5          C320   1.526       .  S
C6            C9   1.390       .  D
C6          C260   1.517       .  S
C7           C10   1.376       .  D
C7          C280   1.505       .  S
C8          C340   1.519       .  S
C9          C240   1.519       .  S
C10         C291   1.517       .  S
O11         Cu19   1.924       .  S
O11          C21   1.249       .  A
O12        Cu369   1.921       .  S
O12          C22   1.249       .  A
O13         Cu19   2.005       .  S
O13          C23   1.269       .  A
O14        Cu369   2.000       .  S
O14          C24   1.266       .  A
O15        Cu370   2.079   1_554  S
O15          C24   1.286       .  A
O16         Cu20   2.070       .  S
O16          C23   1.285       .  A
O17        Cu370   2.115   1_554  S
O17          C22   1.289       .  A
O18         Cu20   2.110       .  S
O18          C21   1.287       .  A
Cu19        O362   1.921       .  S
Cu19        O364   2.000       .  S
Cu19        Cu20   2.233       .  S
Cu20        O365   2.079       .  S
Cu20        O367   2.115       .  S
C21          C88   1.508       .  S
C22          C56   1.511       .  S
C23          C72   1.503       .  S
C24          C97   1.509       .  S
O25         Cu33   2.069       .  S
O25          C35   1.285       .  A
O26       Cu1083   2.062   1_545  S
O26          C36   1.284       .  A
O27        Cu733   2.100   1_545  S
O27          C37   1.288       .  A
O28        Cu383   2.097       .  S
O28          C38   1.287       .  A
O29       Cu1084   1.912       .  S
O29          C38   1.247       .  A
O30         Cu34   1.913   1_545  S
O30          C37   1.248       .  A
O31        Cu384   1.999   1_545  S
O31          C36   1.268       .  A
O32        Cu734   2.001       .  S
O32          C35   1.268       .  A
Cu33       O1076   2.062       .  S
Cu33        O727   2.100       .  S
Cu33        O378   2.097       .  S
Cu33       Cu734   2.243       .  S
Cu34       O1079   1.912       .  S
Cu34        O381   1.999   1_565  S
Cu34        O732   2.001       .  S
Cu34       Cu733   2.243       .  S
C35          C80   1.503       .  S
C36          C57   1.499       .  S
C37          C73   1.503       .  S
C38          C64   1.501       .  S
O39       Cu1797   1.914       .  S
O39          C49   1.247       .  A
O40         Cu47   1.912   1_455  S
O40          C50   1.248       .  A
O41        Cu397   1.996   1_455  S
O41          C51   1.268       .  A
O42       Cu1447   1.996       .  S
O42          C52   1.268       .  A
O43         Cu48   2.067       .  S
O43          C52   1.284       .  A
O44       Cu1798   2.073       .  S
O44          C51   1.285       .  A
O45       Cu1448   2.109       .  S
O45          C50   1.289       .  A
O46        Cu398   2.106       .  S
O46          C49   1.289       .  A
Cu47       O1789   1.914   1_554  S
Cu47        O391   1.996   1_654  S
Cu47       O1442   1.996       .  S
Cu47      Cu1448   2.249   1_655  S
Cu48       O1794   2.073   1_554  S
Cu48       O1445   2.109       .  S
Cu48        O396   2.106   1_554  S
Cu48      Cu1447   2.249       .  S
C49          C81   1.506       .  S
C50          C96   1.507       .  S
C51          C89   1.506       .  S
C52          C65   1.503       .  S
C53         C300   1.499       .  S
C53          C58   1.400       .  A
C53        C1454   1.420       .  A
C54         C220   1.484       .  S
C54          C55   1.407       .  A
C54        C1453   1.420   1_455  A
C55          C56   1.403       .  A
C55          H60   1.084       .  S
C56        C1457   1.452   1_455  A
C57          C58   1.401       .  A
C57        C1456   1.452       .  A
C58          H59   1.084       .  S
C61         C231   1.495       .  S
C61          C62   1.422       .  A
C61          C66   1.404       .  A
C62         C200   1.485       .  S
C62          C63   1.402       .  A
C63          C64   1.398       .  A
C63          H68   1.084       .  S
C64          C65   1.450       .  A
C65          C66   1.398       .  A
C66          H67   1.084       .  S
C69         C271   1.483       .  S
C69          C74   1.402       .  A
C69        C1470   1.422       .  A
C70         C180   1.502       .  S
C70          C71   1.406       .  A
C70        C1469   1.422   1_455  A
C71          C72   1.403       .  A
C71          H76   1.084       .  S
C72        C1473   1.450   1_455  A
C73          C74   1.398       .  A
C73        C1472   1.450       .  A
C74          H75   1.084       .  S
C77         C251   1.488       .  S
C77          C78   1.421       .  A
C77          C82   1.404       .  A
C78         C151   1.497       .  S
C78          C79   1.403       .  A
C79          C80   1.402       .  A
C79          H84   1.085       .  S
C80          C81   1.453       .  A
C81          C82   1.399       .  A
C82          H83   1.085       .  S
C85         C131   1.484       .  S
C85          C90   1.400       .  A
C85         C786   1.436       .  A
C86         C311   1.525       .  S
C86          C87   1.416       .  A
C86         C785   1.436   1_545  A
C87          C88   1.409       .  A
C87          H92   1.083       .  S
C88         C789   1.449   1_545  A
C89          C90   1.391       .  A
C89         C788   1.449       .  A
C90          H91   1.088       .  S
C93         C331   1.532       .  S
C93          C98   1.413       .  A
C93         C794   1.443   1_545  A
C94         C111   1.503       .  S
C94          C95   1.414       .  A
C94         C793   1.443       .  A
C95          C96   1.399       .  A
C95         H100   1.084       .  S
C96         C797   1.445       .  A
C97          C98   1.396       .  A
C97         C796   1.445   1_545  A
C98          H99   1.076       .  S
C101        H102   1.083       .  S
C101        C107   1.546       .  S
C101        C106   1.550       .  S
C101        C105   1.563       .  S
C103        H104   1.091       .  S
C103        C109   1.571       .  S
C103        C108   1.548       .  S
C103        C110   1.573       .  S
C105        C108   1.378       .  D
C105        C171   1.521       .  S
C106        C109   1.399       .  D
C106        C140   1.539       .  S
C107        C110   1.395       .  D
C107        C160   1.527       .  S
C108        C211   1.524       .  S
C109        C120   1.535       .  S
C110        C191   1.542       .  S
C111        C112   1.416       .  A
C111        C116   1.420       .  A
C112        C113   1.413       .  A
C112       Br124   1.932       .  S
C113        C114   1.413       .  A
C113       Br128   1.928       .  S
C114        C117   1.499       .  S
C114        C115   1.409       .  A
C115        C116   1.409       .  A
C115       Br123   1.932       .  S
C116       Br127   1.935       .  S
C117        C118   1.404       .  A
C117        C122   1.405       .  A
C118        C119   1.412       .  A
C118       Br129   1.935       .  S
C119        C120   1.425       .  A
C119       Br125   1.909       .  S
C120        C121   1.423       .  A
C121        C122   1.416       .  A
C121       Br130   1.908       .  S
C122       Br126   1.933       .  S
C131        C132   1.413       .  A
C131        C136   1.411       .  A
C132        C133   1.408       .  A
C132       Br144   1.931       .  S
C133        C134   1.408       .  A
C133       Br148   1.926       .  S
C134        C137   1.484       .  S
C134        C135   1.410       .  A
C135        C136   1.405       .  A
C135       Br143   1.930       .  S
C136       Br147   1.931       .  S
C137        C138   1.404       .  A
C137        C142   1.400       .  A
C138        C139   1.414       .  A
C138       Br149   1.935       .  S
C139        C140   1.434       .  A
C139       Br145   1.934       .  S
C140        C141   1.413       .  A
C141        C142   1.400       .  A
C141       Br150   1.905       .  S
C142       Br146   1.924       .  S
C151        C152   1.419       .  A
C151        C156   1.411       .  A
C152        C153   1.410       .  A
C152       Br164   1.934       .  S
C153        C154   1.410       .  A
C153       Br168   1.932       .  S
C154        C157   1.491       .  S
C154        C155   1.408       .  A
C155        C156   1.404       .  A
C155       Br163   1.926       .  S
C156       Br167   1.923       .  S
C157        C158   1.404       .  A
C157        C162   1.404       .  A
C158        C159   1.412       .  A
C158       Br169   1.936       .  S
C159        C160   1.429       .  A
C159       Br165   1.923       .  S
C160        C161   1.423       .  A
C161        C162   1.409       .  A
C161       Br170   1.910       .  S
C162       Br166   1.939       .  S
C171        C172   1.423       .  A
C171        C176   1.423       .  A
C172        C173   1.411       .  A
C172       Br184   1.914       .  S
C173        C174   1.403       .  A
C173       Br188   1.936       .  S
C174        C177   1.489       .  S
C174        C175   1.403       .  A
C175        C176   1.410       .  A
C175       Br183   1.935       .  S
C176       Br187   1.913       .  S
C177        C178   1.408       .  A
C177        C182   1.408       .  A
C178        C179   1.408       .  A
C178       Br189   1.933       .  S
C179        C180   1.419       .  A
C179       Br185   1.934       .  S
C180        C181   1.416       .  A
C181        C182   1.410       .  A
C181      Br1590   1.921       .  S
C182       Br186   1.932       .  S
Br190      C1581   1.921       .  S
C191        C192   1.428       .  A
C191        C196   1.430       .  A
C192        C193   1.403       .  A
C192       Br204   1.938       .  S
C193        C194   1.403       .  A
C193       Br208   1.935       .  S
C194        C197   1.487       .  S
C194        C195   1.404       .  A
C195        C196   1.412       .  A
C195       Br203   1.935       .  S
C196       Br207   1.920       .  S
C197        C198   1.410       .  A
C197        C202   1.411       .  A
C198        C199   1.400       .  A
C198       Br209   1.934       .  S
C199        C200   1.412       .  A
C199       Br205   1.937       .  S
C200        C201   1.412       .  A
C201        C202   1.410       .  A
C201       Br210   1.927       .  S
C202       Br206   1.927       .  S
C211        C212   1.427       .  A
C211        C216   1.420       .  A
C212        C213   1.409       .  A
C212       Br224   1.911       .  S
C213        C214   1.401       .  A
C213       Br228   1.938       .  S
C214        C217   1.482       .  S
C214        C215   1.399       .  A
C215        C216   1.407       .  A
C215       Br223   1.934       .  S
C216       Br227   1.903       .  S
C217        C218   1.408       .  A
C217        C222   1.408       .  A
C218        C219   1.406       .  A
C218       Br229   1.930       .  S
C219        C220   1.410       .  A
C219       Br225   1.926       .  S
C220        C221   1.412       .  A
C221        C222   1.405       .  A
C221       Br230   1.933       .  S
C222       Br226   1.931       .  S
C231        C232   1.418       .  A
C231        C236   1.410       .  A
C232        C233   1.407       .  A
C232       Br244   1.932       .  S
C233        C234   1.413       .  A
C233       Br248   1.933       .  S
C234        C237   1.491       .  S
C234        C235   1.411       .  A
C235        C236   1.399       .  A
C235       Br243   1.932       .  S
C236       Br247   1.917       .  S
C237        C238   1.407       .  A
C237        C242   1.405       .  A
C238        C239   1.406       .  A
C238       Br249   1.936       .  S
C239        C240   1.428       .  A
C239       Br245   1.926       .  S
C240        C241   1.419       .  A
C241        C242   1.403       .  A
C241       Br250   1.922       .  S
C242       Br246   1.926       .  S
C251        C252   1.412       .  A
C251        C256   1.415       .  A
C252        C253   1.408       .  A
C252       Br264   1.926       .  S
C253        C254   1.409       .  A
C253       Br268   1.930       .  S
C254        C257   1.485       .  S
C254        C255   1.409       .  A
C255        C256   1.403       .  A
C255       Br263   1.929       .  S
C256       Br267   1.938       .  S
C257        C258   1.402       .  A
C257        C262   1.404       .  A
C258        C259   1.407       .  A
C258       Br269   1.938       .  S
C259        C260   1.427       .  A
C259       Br265   1.922       .  S
C260        C261   1.424       .  A
C261        C262   1.410       .  A
C261       Br270   1.926       .  S
C262       Br266   1.929       .  S
C271        C272   1.410       .  A
C271        C276   1.415       .  A
C272        C273   1.405       .  A
C272       Br284   1.926       .  S
C273        C274   1.408       .  A
C273       Br288   1.931       .  S
C274        C277   1.477       .  S
C274        C275   1.407       .  A
C275        C276   1.403       .  A
C275       Br283   1.933       .  S
C276       Br287   1.935       .  S
C277        C278   1.405       .  A
C277        C282   1.401       .  A
C278        C279   1.407       .  A
C278       Br289   1.933       .  S
C279        C280   1.421       .  A
C279       Br285   1.926       .  S
C280        C281   1.421       .  A
C281        C282   1.402       .  A
C281       Br290   1.922       .  S
C282       Br286   1.935       .  S
C291        C292   1.422       .  A
C291        C296   1.423       .  A
C292        C293   1.410       .  A
C292       Br304   1.922       .  S
C293        C294   1.406       .  A
C293       Br308   1.935       .  S
C294        C297   1.492       .  S
C294        C295   1.406       .  A
C295        C296   1.411       .  A
C295       Br303   1.935       .  S
C296       Br307   1.926       .  S
C297        C298   1.409       .  A
C297        C302   1.410       .  A
C298        C299   1.408       .  A
C298       Br309   1.932       .  S
C299        C300   1.413       .  A
C299      Br1705   1.921       .  S
C300        C301   1.417       .  A
C301        C302   1.409       .  A
C301       Br310   1.933       .  S
C302       Br306   1.932       .  S
Br305      C1699   1.921       .  S
C311        C312   1.428       .  A
C311        C316   1.399       .  A
C312        C313   1.425       .  A
C312       Br324   1.930       .  S
C313        C314   1.420       .  A
C313       Br328   1.929       .  S
C314        C317   1.497       .  S
C314        C315   1.407       .  A
C315        C316   1.392       .  A
C315       Br323   1.920       .  S
C316      Br1027   1.920   1_545  S
C317        C318   1.410       .  A
C317        C322   1.405       .  A
C318        C319   1.406       .  A
C318       Br329   1.929       .  S
C319        C320   1.419       .  A
C319       Br325   1.924       .  S
C320        C321   1.430       .  A
C321        C322   1.412       .  A
C321       Br330   1.920       .  S
C322       Br326   1.936       .  S
Br327      C1016   1.920       .  S
C331        C332   1.427       .  A
C331        C336   1.406       .  A
C332        C333   1.410       .  A
C332       Br344   1.938       .  S
C333        C334   1.408       .  A
C333       Br348   1.933       .  S
C334        C337   1.485       .  S
C334        C335   1.408       .  A
C335        C336   1.402       .  A
C335       Br343   1.926       .  S
C336      Br1047   1.920       .  S
C337        C338   1.404       .  A
C337        C342   1.404       .  A
C338        C339   1.406       .  A
C338       Br349   1.940       .  S
C339        C340   1.427       .  A
C339       Br345   1.920       .  S
C340        C341   1.425       .  A
C341        C342   1.410       .  A
C341       Br350   1.924       .  S
C342       Br346   1.932       .  S
Br347      C1036   1.920       .  S
C351        H352   1.105       .  S
C351        C357   1.550       .  S
C351        C356   1.551       .  S
C351        C355   1.551       .  S
C353        H354   1.102       .  S
C353        C359   1.549       .  S
C353        C358   1.557       .  S
C353        C360   1.543       .  S
C355        C358   1.391       .  D
C355        C670   1.526       .  S
C356        C359   1.390       .  D
C356        C610   1.517       .  S
C357        C360   1.376       .  D
C357        C630   1.505       .  S
C358        C690   1.519       .  S
C359        C590   1.519       .  S
C360        C641   1.517       .  S
O361       Cu369   1.924   1_556  S
O361        C371   1.249       .  A
O362        C372   1.249       .  A
O363       Cu369   2.005   1_556  S
O363        C373   1.269       .  A
O364        C374   1.266       .  A
O365        C374   1.286       .  A
O366       Cu370   2.070       .  S
O366        C373   1.285       .  A
O367        C372   1.289       .  A
O368       Cu370   2.110       .  S
O368        C371   1.287       .  A
Cu369      Cu370   2.233   1_554  S
C371        C438   1.508       .  S
C372        C406   1.511       .  S
C373        C422   1.503       .  S
C374        C447   1.509       .  S
O375       Cu383   2.069   1_556  S
O375        C385   1.285       .  A
O376       Cu733   2.062   1_545  S
O376        C386   1.284       .  A
O377      Cu1083   2.100   1_546  S
O377        C387   1.288       .  A
O378        C388   1.287       .  A
O379       Cu734   1.912       .  S
O379        C388   1.247       .  A
O380       Cu384   1.913   1_546  S
O380        C387   1.248       .  A
O381        C386   1.268       .  A
O382      Cu1084   2.001   1_556  S
O382        C385   1.268       .  A
Cu383       O726   2.062       .  S
Cu383      O1077   2.100   1_554  S
Cu383     Cu1084   2.243       .  S
Cu384       O729   1.912       .  S
Cu384      O1082   2.001   1_554  S
Cu384     Cu1083   2.243       .  S
C385        C430   1.503       .  S
C386        C407   1.499       .  S
C387        C423   1.503       .  S
C388        C414   1.501       .  S
O389      Cu1447   1.914   1_556  S
O389        C399   1.247       .  A
O390       Cu397   1.912   1_455  S
O390        C400   1.248       .  A
O391        C401   1.268       .  A
O392      Cu1797   1.996       .  S
O392        C402   1.268       .  A
O393       Cu398   2.067       .  S
O393        C402   1.284       .  A
O394      Cu1448   2.073   1_556  S
O394        C401   1.285       .  A
O395      Cu1798   2.109       .  S
O395        C400   1.289       .  A
O396        C399   1.289       .  A
Cu397      O1439   1.914       .  S
Cu397      O1792   1.996       .  S
Cu397     Cu1798   2.249   1_655  S
Cu398      O1444   2.073       .  S
Cu398      O1795   2.109       .  S
Cu398     Cu1797   2.249       .  S
C399        C431   1.506       .  S
C400        C446   1.507       .  S
C401        C439   1.506       .  S
C402        C415   1.503       .  S
C403        C650   1.499       .  S
C403       C1804   1.420       .  A
C403        C408   1.400       .  A
C404        C570   1.484       .  S
C404       C1803   1.420   1_455  A
C404        C405   1.407       .  A
C405        C406   1.403       .  A
C405        H410   1.084       .  S
C406       C1807   1.452   1_455  A
C407       C1806   1.452       .  A
C407        C408   1.401       .  A
C408        H409   1.084       .  S
C411        C581   1.495       .  S
C411        C412   1.422       .  A
C411        C416   1.404       .  A
C412        C550   1.485       .  S
C412        C413   1.402       .  A
C413        C414   1.398       .  A
C413        H418   1.084       .  S
C414        C415   1.450       .  A
C415        C416   1.398       .  A
C416        H417   1.084       .  S
C419        C621   1.483       .  S
C419       C1820   1.422       .  A
C419        C424   1.402       .  A
C420        C530   1.502       .  S
C420       C1819   1.422   1_455  A
C420        C421   1.406       .  A
C421        C422   1.403       .  A
C421        H426   1.084       .  S
C422       C1823   1.450   1_455  A
C423       C1822   1.450       .  A
C423        C424   1.398       .  A
C424        H425   1.084       .  S
C427        C601   1.488       .  S
C427        C428   1.421       .  A
C427        C432   1.404       .  A
C428        C501   1.497       .  S
C428        C429   1.403       .  A
C429        C430   1.402       .  A
C429        H434   1.085       .  S
C430        C431   1.453       .  A
C431        C432   1.399       .  A
C432        H433   1.085       .  S
C435        C481   1.484       .  S
C435       C1136   1.436       .  A
C435        C440   1.400       .  A
C436        C661   1.525       .  S
C436       C1135   1.436   1_545  A
C436        C437   1.416       .  A
C437        C438   1.409       .  A
C437        H442   1.083       .  S
C438       C1139   1.449   1_545  A
C439       C1138   1.449       .  A
C439        C440   1.391       .  A
C440        H441   1.088       .  S
C443        C681   1.532       .  S
C443       C1144   1.443   1_545  A
C443        C448   1.413       .  A
C444        C461   1.503       .  S
C444       C1143   1.443       .  A
C444        C445   1.414       .  A
C445        C446   1.399       .  A
C445        H450   1.084       .  S
C446       C1147   1.445       .  A
C447       C1146   1.445   1_545  A
C447        C448   1.396       .  A
C448        H449   1.076       .  S
C451        H452   1.083       .  S
C451        C457   1.546       .  S
C451        C456   1.550       .  S
C451        C455   1.563       .  S
C453        H454   1.091       .  S
C453        C459   1.571       .  S
C453        C458   1.548       .  S
C453        C460   1.573       .  S
C455        C458   1.378       .  D
C455        C521   1.521       .  S
C456        C459   1.399       .  D
C456        C490   1.539       .  S
C457        C460   1.395       .  D
C457        C510   1.527       .  S
C458        C561   1.524       .  S
C459        C470   1.535       .  S
C460        C541   1.542       .  S
C461        C462   1.416       .  A
C461        C466   1.420       .  A
C462        C463   1.413       .  A
C462       Br474   1.932       .  S
C463        C464   1.413       .  A
C463       Br478   1.928       .  S
C464        C467   1.499       .  S
C464        C465   1.409       .  A
C465        C466   1.409       .  A
C465       Br473   1.932       .  S
C466       Br477   1.935       .  S
C467        C468   1.404       .  A
C467        C472   1.405       .  A
C468        C469   1.412       .  A
C468       Br479   1.935       .  S
C469        C470   1.425       .  A
C469       Br475   1.909       .  S
C470        C471   1.423       .  A
C471        C472   1.416       .  A
C471       Br480   1.908       .  S
C472       Br476   1.933       .  S
C481        C482   1.413       .  A
C481        C486   1.411       .  A
C482        C483   1.408       .  A
C482       Br494   1.931       .  S
C483        C484   1.408       .  A
C483       Br498   1.926       .  S
C484        C487   1.484       .  S
C484        C485   1.410       .  A
C485        C486   1.405       .  A
C485       Br493   1.930       .  S
C486       Br497   1.931       .  S
C487        C488   1.404       .  A
C487        C492   1.400       .  A
C488        C489   1.414       .  A
C488       Br499   1.935       .  S
C489        C490   1.434       .  A
C489       Br495   1.934       .  S
C490        C491   1.413       .  A
C491        C492   1.400       .  A
C491       Br500   1.905       .  S
C492       Br496   1.924       .  S
C501        C502   1.419       .  A
C501        C506   1.411       .  A
C502        C503   1.410       .  A
C502       Br514   1.934       .  S
C503        C504   1.410       .  A
C503       Br518   1.932       .  S
C504        C507   1.491       .  S
C504        C505   1.408       .  A
C505        C506   1.404       .  A
C505       Br513   1.926       .  S
C506       Br517   1.923       .  S
C507        C508   1.404       .  A
C507        C512   1.404       .  A
C508        C509   1.412       .  A
C508       Br519   1.936       .  S
C509        C510   1.429       .  A
C509       Br515   1.923       .  S
C510        C511   1.423       .  A
C511        C512   1.409       .  A
C511       Br520   1.910       .  S
C512       Br516   1.939       .  S
C521        C522   1.423       .  A
C521        C526   1.423       .  A
C522        C523   1.411       .  A
C522       Br534   1.914       .  S
C523        C524   1.403       .  A
C523       Br538   1.936       .  S
C524        C527   1.489       .  S
C524        C525   1.403       .  A
C525        C526   1.410       .  A
C525       Br533   1.935       .  S
C526       Br537   1.913       .  S
C527        C528   1.408       .  A
C527        C532   1.408       .  A
C528        C529   1.408       .  A
C528       Br539   1.933       .  S
C529        C530   1.419       .  A
C529       Br535   1.934       .  S
C530        C531   1.416       .  A
C531        C532   1.410       .  A
C531      Br1940   1.921       .  S
C532       Br536   1.932       .  S
Br540      C1931   1.921       .  S
C541        C542   1.428       .  A
C541        C546   1.430       .  A
C542        C543   1.403       .  A
C542       Br554   1.938       .  S
C543        C544   1.403       .  A
C543       Br558   1.935       .  S
C544        C547   1.487       .  S
C544        C545   1.404       .  A
C545        C546   1.412       .  A
C545       Br553   1.935       .  S
C546       Br557   1.920       .  S
C547        C548   1.410       .  A
C547        C552   1.411       .  A
C548        C549   1.400       .  A
C548       Br559   1.934       .  S
C549        C550   1.412       .  A
C549       Br555   1.937       .  S
C550        C551   1.412       .  A
C551        C552   1.410       .  A
C551       Br560   1.927       .  S
C552       Br556   1.927       .  S
C561        C562   1.427       .  A
C561        C566   1.420       .  A
C562        C563   1.409       .  A
C562       Br574   1.911       .  S
C563        C564   1.401       .  A
C563       Br578   1.938       .  S
C564        C567   1.482       .  S
C564        C565   1.399       .  A
C565        C566   1.407       .  A
C565       Br573   1.934       .  S
C566       Br577   1.903       .  S
C567        C568   1.408       .  A
C567        C572   1.408       .  A
C568        C569   1.406       .  A
C568       Br579   1.930       .  S
C569        C570   1.410       .  A
C569       Br575   1.926       .  S
C570        C571   1.412       .  A
C571        C572   1.405       .  A
C571       Br580   1.933       .  S
C572       Br576   1.931       .  S
C581        C582   1.418       .  A
C581        C586   1.410       .  A
C582        C583   1.407       .  A
C582       Br594   1.932       .  S
C583        C584   1.413       .  A
C583       Br598   1.933       .  S
C584        C587   1.491       .  S
C584        C585   1.411       .  A
C585        C586   1.399       .  A
C585       Br593   1.932       .  S
C586       Br597   1.917       .  S
C587        C588   1.407       .  A
C587        C592   1.405       .  A
C588        C589   1.406       .  A
C588       Br599   1.936       .  S
C589        C590   1.428       .  A
C589       Br595   1.926       .  S
C590        C591   1.419       .  A
C591        C592   1.403       .  A
C591       Br600   1.922       .  S
C592       Br596   1.926       .  S
C601        C602   1.412       .  A
C601        C606   1.415       .  A
C602        C603   1.408       .  A
C602       Br614   1.926       .  S
C603        C604   1.409       .  A
C603       Br618   1.930       .  S
C604        C607   1.485       .  S
C604        C605   1.409       .  A
C605        C606   1.403       .  A
C605       Br613   1.929       .  S
C606       Br617   1.938       .  S
C607        C608   1.402       .  A
C607        C612   1.404       .  A
C608        C609   1.407       .  A
C608       Br619   1.938       .  S
C609        C610   1.427       .  A
C609       Br615   1.922       .  S
C610        C611   1.424       .  A
C611        C612   1.410       .  A
C611       Br620   1.926       .  S
C612       Br616   1.929       .  S
C621        C622   1.410       .  A
C621        C626   1.415       .  A
C622        C623   1.405       .  A
C622       Br634   1.926       .  S
C623        C624   1.408       .  A
C623       Br638   1.931       .  S
C624        C627   1.477       .  S
C624        C625   1.407       .  A
C625        C626   1.403       .  A
C625       Br633   1.933       .  S
C626       Br637   1.935       .  S
C627        C628   1.405       .  A
C627        C632   1.401       .  A
C628        C629   1.407       .  A
C628       Br639   1.933       .  S
C629        C630   1.421       .  A
C629       Br635   1.926       .  S
C630        C631   1.421       .  A
C631        C632   1.402       .  A
C631       Br640   1.922       .  S
C632       Br636   1.935       .  S
C641        C642   1.422       .  A
C641        C646   1.423       .  A
C642        C643   1.410       .  A
C642       Br654   1.922       .  S
C643        C644   1.406       .  A
C643       Br658   1.935       .  S
C644        C647   1.492       .  S
C644        C645   1.406       .  A
C645        C646   1.411       .  A
C645       Br653   1.935       .  S
C646       Br657   1.926       .  S
C647        C648   1.409       .  A
C647        C652   1.410       .  A
C648        C649   1.408       .  A
C648       Br659   1.932       .  S
C649        C650   1.413       .  A
C649      Br2055   1.921       .  S
C650        C651   1.417       .  A
C651        C652   1.409       .  A
C651       Br660   1.933       .  S
C652       Br656   1.932       .  S
Br655      C2049   1.921       .  S
C661        C662   1.428       .  A
C661        C666   1.399       .  A
C662        C663   1.425       .  A
C662       Br674   1.930       .  S
C663        C664   1.420       .  A
C663       Br678   1.929       .  S
C664        C667   1.497       .  S
C664        C665   1.407       .  A
C665        C666   1.392       .  A
C665       Br673   1.920       .  S
C666      Br1377   1.920   1_545  S
C667        C668   1.410       .  A
C667        C672   1.405       .  A
C668        C669   1.406       .  A
C668       Br679   1.929       .  S
C669        C670   1.419       .  A
C669       Br675   1.924       .  S
C670        C671   1.430       .  A
C671        C672   1.412       .  A
C671       Br680   1.920       .  S
C672       Br676   1.936       .  S
Br677      C1366   1.920       .  S
C681        C682   1.427       .  A
C681        C686   1.406       .  A
C682        C683   1.410       .  A
C682       Br694   1.938       .  S
C683        C684   1.408       .  A
C683       Br698   1.933       .  S
C684        C687   1.485       .  S
C684        C685   1.408       .  A
C685        C686   1.402       .  A
C685       Br693   1.926       .  S
C686      Br1397   1.920       .  S
C687        C688   1.404       .  A
C687        C692   1.404       .  A
C688        C689   1.406       .  A
C688       Br699   1.940       .  S
C689        C690   1.427       .  A
C689       Br695   1.920       .  S
C690        C691   1.425       .  A
C691        C692   1.410       .  A
C691       Br700   1.924       .  S
C692       Br696   1.932       .  S
Br697      C1386   1.920       .  S
C701        H702   1.105       .  S
C701        C707   1.550       .  S
C701        C706   1.551       .  S
C701        C705   1.551       .  S
C703        H704   1.102       .  S
C703        C709   1.549       .  S
C703        C708   1.557       .  S
C703        C710   1.543       .  S
C705        C708   1.391       .  D
C705       C1020   1.526       .  S
C706        C709   1.390       .  D
C706        C960   1.517       .  S
C707        C710   1.376       .  D
C707        C980   1.505       .  S
C708       C1040   1.519       .  S
C709        C940   1.519       .  S
C710        C991   1.517       .  S
O711       Cu719   1.924       .  S
O711        C721   1.249       .  A
O712      Cu1069   1.921       .  S
O712        C722   1.249       .  A
O713       Cu719   2.005       .  S
O713        C723   1.269       .  A
O714      Cu1069   2.000       .  S
O714        C724   1.266       .  A
O715      Cu1070   2.079   1_554  S
O715        C724   1.286       .  A
O716       Cu720   2.070       .  S
O716        C723   1.285       .  A
O717      Cu1070   2.115   1_554  S
O717        C722   1.289       .  A
O718       Cu720   2.110       .  S
O718        C721   1.287       .  A
Cu719      O1062   1.921       .  S
Cu719      O1064   2.000       .  S
Cu719      Cu720   2.233       .  S
Cu720      O1065   2.079       .  S
Cu720      O1067   2.115       .  S
C721        C788   1.508       .  S
C722        C756   1.511       .  S
C723        C772   1.503       .  S
C724        C797   1.509       .  S
O725       Cu733   2.069       .  S
O725        C735   1.285       .  A
O726        C736   1.284       .  A
O727        C737   1.288       .  A
O728      Cu1083   2.097       .  S
O728        C738   1.287       .  A
O729        C738   1.247       .  A
O730       Cu734   1.913       .  S
O730        C737   1.248       .  A
O731      Cu1084   1.999       .  S
O731        C736   1.268       .  A
O732        C735   1.268       .  A
Cu733      O1078   2.097       .  S
Cu734      O1081   1.999       .  S
C735        C780   1.503       .  S
C736        C757   1.499       .  S
C737        C773   1.503       .  S
C738        C764   1.501       .  S
O739      Cu2497   1.914       .  S
O739        C749   1.247       .  A
O740       Cu747   1.912   1_455  S
O740        C750   1.248       .  A
O741      Cu1097   1.996   1_455  S
O741        C751   1.268       .  A
O742      Cu2147   1.996       .  S
O742        C752   1.268       .  A
O743       Cu748   2.067       .  S
O743        C752   1.284       .  A
O744      Cu2498   2.073       .  S
O744        C751   1.285       .  A
O745      Cu2148   2.109       .  S
O745        C750   1.289       .  A
O746      Cu1098   2.106       .  S
O746        C749   1.289       .  A
Cu747      O2489   1.914   1_554  S
Cu747      O1091   1.996   1_654  S
Cu747      O2142   1.996       .  S
Cu747     Cu2148   2.249   1_655  S
Cu748      O2494   2.073   1_554  S
Cu748      O2145   2.109       .  S
Cu748      O1096   2.106   1_554  S
Cu748     Cu2147   2.249       .  S
C749        C781   1.506       .  S
C750        C796   1.507       .  S
C751        C789   1.506       .  S
C752        C765   1.503       .  S
C753       C1000   1.499       .  S
C753       C2154   1.420       .  A
C753        C758   1.400       .  A
C754        C920   1.484       .  S
C754       C2153   1.420   1_455  A
C754        C755   1.407       .  A
C755        C756   1.403       .  A
C755        H760   1.084       .  S
C756       C2157   1.452   1_455  A
C757       C2156   1.452       .  A
C757        C758   1.401       .  A
C758        H759   1.084       .  S
C761        C931   1.495       .  S
C761        C762   1.422       .  A
C761        C766   1.404       .  A
C762        C900   1.485       .  S
C762        C763   1.402       .  A
C763        C764   1.398       .  A
C763        H768   1.084       .  S
C764        C765   1.450       .  A
C765        C766   1.398       .  A
C766        H767   1.084       .  S
C769        C971   1.483       .  S
C769       C2170   1.422       .  A
C769        C774   1.402       .  A
C770        C880   1.502       .  S
C770       C2169   1.422   1_455  A
C770        C771   1.406       .  A
C771        C772   1.403       .  A
C771        H776   1.084       .  S
C772       C2173   1.450   1_455  A
C773       C2172   1.450       .  A
C773        C774   1.398       .  A
C774        H775   1.084       .  S
C777        C951   1.488       .  S
C777        C778   1.421       .  A
C777        C782   1.404       .  A
C778        C851   1.497       .  S
C778        C779   1.403       .  A
C779        C780   1.402       .  A
C779        H784   1.085       .  S
C780        C781   1.453       .  A
C781        C782   1.399       .  A
C782        H783   1.085       .  S
C785        C831   1.484       .  S
C785        C790   1.400       .  A
C786       C1011   1.525       .  S
C786        C787   1.416       .  A
C787        C788   1.409       .  A
C787        H792   1.083       .  S
C789        C790   1.391       .  A
C790        H791   1.088       .  S
C793       C1031   1.532       .  S
C793        C798   1.413       .  A
C794        C811   1.503       .  S
C794        C795   1.414       .  A
C795        C796   1.399       .  A
C795        H800   1.084       .  S
C797        C798   1.396       .  A
C798        H799   1.076       .  S
C801        H802   1.083       .  S
C801        C807   1.546       .  S
C801        C806   1.550       .  S
C801        C805   1.563       .  S
C803        H804   1.091       .  S
C803        C809   1.571       .  S
C803        C808   1.548       .  S
C803        C810   1.573       .  S
C805        C808   1.378       .  D
C805        C871   1.521       .  S
C806        C809   1.399       .  D
C806        C840   1.539       .  S
C807        C810   1.395       .  D
C807        C860   1.527       .  S
C808        C911   1.524       .  S
C809        C820   1.535       .  S
C810        C891   1.542       .  S
C811        C812   1.416       .  A
C811        C816   1.420       .  A
C812        C813   1.413       .  A
C812       Br824   1.932   1_565  S
C813        C814   1.413       .  A
C813       Br828   1.928       .  S
C814        C817   1.499       .  S
C814        C815   1.409       .  A
C815        C816   1.409       .  A
C815       Br823   1.932       .  S
C816       Br827   1.935       .  S
C817        C818   1.404       .  A
C817        C822   1.405       .  A
C818        C819   1.412       .  A
C818       Br829   1.935       .  S
C819        C820   1.425       .  A
C819       Br825   1.909       .  S
C820        C821   1.423       .  A
C821        C822   1.416       .  A
C821       Br830   1.908       .  S
C822       Br826   1.933       .  S
C831        C832   1.413       .  A
C831        C836   1.411       .  A
C832        C833   1.408       .  A
C832       Br844   1.931       .  S
C833        C834   1.408       .  A
C833       Br848   1.926       .  S
C834        C837   1.484       .  S
C834        C835   1.410       .  A
C835        C836   1.405       .  A
C835       Br843   1.930       .  S
C836       Br847   1.931       .  S
C837        C838   1.404       .  A
C837        C842   1.400       .  A
C838        C839   1.414       .  A
C838       Br849   1.935       .  S
C839        C840   1.434       .  A
C839       Br845   1.934       .  S
C840        C841   1.413       .  A
C841        C842   1.400       .  A
C841       Br850   1.905       .  S
C842       Br846   1.924       .  S
C851        C852   1.419       .  A
C851        C856   1.411       .  A
C852        C853   1.410       .  A
C852       Br864   1.934       .  S
C853        C854   1.410       .  A
C853       Br868   1.932       .  S
C854        C857   1.491       .  S
C854        C855   1.408       .  A
C855        C856   1.404       .  A
C855       Br863   1.926       .  S
C856       Br867   1.923       .  S
C857        C858   1.404       .  A
C857        C862   1.404       .  A
C858        C859   1.412       .  A
C858       Br869   1.936       .  S
C859        C860   1.429       .  A
C859       Br865   1.923       .  S
C860        C861   1.423       .  A
C861        C862   1.409       .  A
C861       Br870   1.910       .  S
C862       Br866   1.939       .  S
C871        C872   1.423       .  A
C871        C876   1.423       .  A
C872        C873   1.411       .  A
C872       Br884   1.914       .  S
C873        C874   1.403       .  A
C873       Br888   1.936       .  S
C874        C877   1.489       .  S
C874        C875   1.403       .  A
C875        C876   1.410       .  A
C875       Br883   1.935       .  S
C876       Br887   1.913       .  S
C877        C878   1.408       .  A
C877        C882   1.408       .  A
C878        C879   1.408       .  A
C878       Br889   1.933       .  S
C879        C880   1.419       .  A
C879       Br885   1.934       .  S
C880        C881   1.416       .  A
C881        C882   1.410       .  A
C881      Br2290   1.921       .  S
C882       Br886   1.932       .  S
Br890      C2281   1.921       .  S
C891        C892   1.428       .  A
C891        C896   1.430       .  A
C892        C893   1.403       .  A
C892       Br904   1.938       .  S
C893        C894   1.403       .  A
C893       Br908   1.935       .  S
C894        C897   1.487       .  S
C894        C895   1.404       .  A
C895        C896   1.412       .  A
C895       Br903   1.935       .  S
C896       Br907   1.920       .  S
C897        C898   1.410       .  A
C897        C902   1.411       .  A
C898        C899   1.400       .  A
C898       Br909   1.934       .  S
C899        C900   1.412       .  A
C899       Br905   1.937       .  S
C900        C901   1.412       .  A
C901        C902   1.410       .  A
C901       Br910   1.927       .  S
C902       Br906   1.927       .  S
C911        C912   1.427       .  A
C911        C916   1.420       .  A
C912        C913   1.409       .  A
C912       Br924   1.911       .  S
C913        C914   1.401       .  A
C913       Br928   1.938       .  S
C914        C917   1.482       .  S
C914        C915   1.399       .  A
C915        C916   1.407       .  A
C915       Br923   1.934       .  S
C916       Br927   1.903       .  S
C917        C918   1.408       .  A
C917        C922   1.408       .  A
C918        C919   1.406       .  A
C918       Br929   1.930       .  S
C919        C920   1.410       .  A
C919       Br925   1.926       .  S
C920        C921   1.412       .  A
C921        C922   1.405       .  A
C921       Br930   1.933       .  S
C922       Br926   1.931       .  S
C931        C932   1.418       .  A
C931        C936   1.410       .  A
C932        C933   1.407       .  A
C932       Br944   1.932       .  S
C933        C934   1.413       .  A
C933       Br948   1.933       .  S
C934        C937   1.491       .  S
C934        C935   1.411       .  A
C935        C936   1.399       .  A
C935       Br943   1.932       .  S
C936       Br947   1.917       .  S
C937        C938   1.407       .  A
C937        C942   1.405       .  A
C938        C939   1.406       .  A
C938       Br949   1.936       .  S
C939        C940   1.428       .  A
C939       Br945   1.926       .  S
C940        C941   1.419       .  A
C941        C942   1.403       .  A
C941       Br950   1.922       .  S
C942       Br946   1.926       .  S
C951        C952   1.412       .  A
C951        C956   1.415       .  A
C952        C953   1.408       .  A
C952       Br964   1.926       .  S
C953        C954   1.409       .  A
C953       Br968   1.930       .  S
C954        C957   1.485       .  S
C954        C955   1.409       .  A
C955        C956   1.403       .  A
C955       Br963   1.929       .  S
C956       Br967   1.938       .  S
C957        C958   1.402       .  A
C957        C962   1.404       .  A
C958        C959   1.407       .  A
C958       Br969   1.938       .  S
C959        C960   1.427       .  A
C959       Br965   1.922       .  S
C960        C961   1.424       .  A
C961        C962   1.410       .  A
C961       Br970   1.926       .  S
C962       Br966   1.929       .  S
C971        C972   1.410       .  A
C971        C976   1.415       .  A
C972        C973   1.405       .  A
C972       Br984   1.926       .  S
C973        C974   1.408       .  A
C973       Br988   1.931       .  S
C974        C977   1.477       .  S
C974        C975   1.407       .  A
C975        C976   1.403       .  A
C975       Br983   1.933       .  S
C976       Br987   1.935       .  S
C977        C978   1.405       .  A
C977        C982   1.401       .  A
C978        C979   1.407       .  A
C978       Br989   1.933       .  S
C979        C980   1.421       .  A
C979       Br985   1.926       .  S
C980        C981   1.421       .  A
C981        C982   1.402       .  A
C981       Br990   1.922       .  S
C982       Br986   1.935       .  S
C991        C992   1.422       .  A
C991        C996   1.423       .  A
C992        C993   1.410       .  A
C992      Br1004   1.922       .  S
C993        C994   1.406       .  A
C993      Br1008   1.935       .  S
C994        C997   1.492       .  S
C994        C995   1.406       .  A
C995        C996   1.411       .  A
C995      Br1003   1.935       .  S
C996      Br1007   1.926       .  S
C997        C998   1.409       .  A
C997       C1002   1.410       .  A
C998        C999   1.408       .  A
C998      Br1009   1.932       .  S
C999       C1000   1.413       .  A
C999      Br2405   1.921       .  S
C1000      C1001   1.417       .  A
C1001      C1002   1.409       .  A
C1001     Br1010   1.933       .  S
C1002     Br1006   1.932       .  S
Br1005     C2399   1.921       .  S
C1011      C1012   1.428       .  A
C1011      C1016   1.399       .  A
C1012      C1013   1.425       .  A
C1012     Br1024   1.930       .  S
C1013      C1014   1.420       .  A
C1013     Br1028   1.929       .  S
C1014      C1017   1.497       .  S
C1014      C1015   1.407       .  A
C1015      C1016   1.392       .  A
C1015     Br1023   1.920       .  S
C1017      C1018   1.410       .  A
C1017      C1022   1.405       .  A
C1018      C1019   1.406       .  A
C1018     Br1029   1.929       .  S
C1019      C1020   1.419       .  A
C1019     Br1025   1.924       .  S
C1020      C1021   1.430       .  A
C1021      C1022   1.412       .  A
C1021     Br1030   1.920       .  S
C1022     Br1026   1.936       .  S
C1031      C1032   1.427       .  A
C1031      C1036   1.406       .  A
C1032      C1033   1.410       .  A
C1032     Br1044   1.938       .  S
C1033      C1034   1.408       .  A
C1033     Br1048   1.933       .  S
C1034      C1037   1.485       .  S
C1034      C1035   1.408       .  A
C1035      C1036   1.402       .  A
C1035     Br1043   1.926       .  S
C1037      C1038   1.404       .  A
C1037      C1042   1.404       .  A
C1038      C1039   1.406       .  A
C1038     Br1049   1.940       .  S
C1039      C1040   1.427       .  A
C1039     Br1045   1.920       .  S
C1040      C1041   1.425       .  A
C1041      C1042   1.410       .  A
C1041     Br1050   1.924       .  S
C1042     Br1046   1.932       .  S
C1051      H1052   1.105       .  S
C1051      C1057   1.550       .  S
C1051      C1056   1.551       .  S
C1051      C1055   1.551       .  S
C1053      H1054   1.102       .  S
C1053      C1059   1.549       .  S
C1053      C1058   1.557       .  S
C1053      C1060   1.543       .  S
C1055      C1058   1.391       .  D
C1055      C1370   1.526       .  S
C1056      C1059   1.390       .  D
C1056      C1310   1.517       .  S
C1057      C1060   1.376       .  D
C1057      C1330   1.505       .  S
C1058      C1390   1.519       .  S
C1059      C1290   1.519       .  S
C1060      C1341   1.517       .  S
O1061     Cu1069   1.924   1_556  S
O1061      C1071   1.249       .  A
O1062      C1072   1.249       .  A
O1063     Cu1069   2.005   1_556  S
O1063      C1073   1.269       .  A
O1064      C1074   1.266       .  A
O1065      C1074   1.286       .  A
O1066     Cu1070   2.070       .  S
O1066      C1073   1.285       .  A
O1067      C1072   1.289       .  A
O1068     Cu1070   2.110       .  S
O1068      C1071   1.287       .  A
Cu1069    Cu1070   2.233   1_554  S
C1071      C1138   1.508       .  S
C1072      C1106   1.511       .  S
C1073      C1122   1.503       .  S
C1074      C1147   1.509       .  S
O1075     Cu1083   2.069   1_556  S
O1075      C1085   1.285       .  A
O1076      C1086   1.284       .  A
O1077      C1087   1.288       .  A
O1078      C1088   1.287       .  A
O1079      C1088   1.247       .  A
O1080     Cu1084   1.913   1_556  S
O1080      C1087   1.248       .  A
O1081      C1086   1.268       .  A
O1082      C1085   1.268       .  A
C1085      C1130   1.503       .  S
C1086      C1107   1.499       .  S
C1087      C1123   1.503       .  S
C1088      C1114   1.501       .  S
O1089     Cu2147   1.914   1_556  S
O1089      C1099   1.247       .  A
O1090     Cu1097   1.912   1_455  S
O1090      C1100   1.248       .  A
O1091      C1101   1.268       .  A
O1092     Cu2497   1.996       .  S
O1092      C1102   1.268       .  A
O1093     Cu1098   2.067       .  S
O1093      C1102   1.284       .  A
O1094     Cu2148   2.073   1_556  S
O1094      C1101   1.285       .  A
O1095     Cu2498   2.109       .  S
O1095      C1100   1.289       .  A
O1096      C1099   1.289       .  A
Cu1097     O2139   1.914       .  S
Cu1097     O2492   1.996       .  S
Cu1097    Cu2498   2.249   1_655  S
Cu1098     O2144   2.073       .  S
Cu1098     O2495   2.109       .  S
Cu1098    Cu2497   2.249       .  S
C1099      C1131   1.506       .  S
C1100      C1146   1.507       .  S
C1101      C1139   1.506       .  S
C1102      C1115   1.503       .  S
C1103      C1350   1.499       .  S
C1103      C2504   1.420       .  A
C1103      C1108   1.400       .  A
C1104      C1270   1.484       .  S
C1104      C2503   1.420   1_455  A
C1104      C1105   1.407       .  A
C1105      C1106   1.403       .  A
C1105      H1110   1.084       .  S
C1106      C2507   1.452   1_455  A
C1107      C2506   1.452       .  A
C1107      C1108   1.401       .  A
C1108      H1109   1.084       .  S
C1111      C1281   1.495       .  S
C1111      C1112   1.422       .  A
C1111      C1116   1.404       .  A
C1112      C1250   1.485       .  S
C1112      C1113   1.402       .  A
C1113      C1114   1.398       .  A
C1113      H1118   1.084       .  S
C1114      C1115   1.450       .  A
C1115      C1116   1.398       .  A
C1116      H1117   1.084       .  S
C1119      C1321   1.483       .  S
C1119      C2520   1.422       .  A
C1119      C1124   1.402       .  A
C1120      C1230   1.502       .  S
C1120      C2519   1.422   1_455  A
C1120      C1121   1.406       .  A
C1121      C1122   1.403       .  A
C1121      H1126   1.084       .  S
C1122      C2523   1.450   1_455  A
C1123      C2522   1.450       .  A
C1123      C1124   1.398       .  A
C1124      H1125   1.084       .  S
C1127      C1301   1.488       .  S
C1127      C1128   1.421       .  A
C1127      C1132   1.404       .  A
C1128      C1201   1.497       .  S
C1128      C1129   1.403       .  A
C1129      C1130   1.402       .  A
C1129      H1134   1.085       .  S
C1130      C1131   1.453       .  A
C1131      C1132   1.399       .  A
C1132      H1133   1.085       .  S
C1135      C1181   1.484       .  S
C1135      C1140   1.400       .  A
C1136      C1361   1.525       .  S
C1136      C1137   1.416       .  A
C1137      C1138   1.409       .  A
C1137      H1142   1.083       .  S
C1139      C1140   1.391       .  A
C1140      H1141   1.088       .  S
C1143      C1381   1.532       .  S
C1143      C1148   1.413       .  A
C1144      C1161   1.503       .  S
C1144      C1145   1.414       .  A
C1145      C1146   1.399       .  A
C1145      H1150   1.084       .  S
C1147      C1148   1.396       .  A
C1148      H1149   1.076       .  S
C1151      H1152   1.083       .  S
C1151      C1157   1.546       .  S
C1151      C1156   1.550       .  S
C1151      C1155   1.563       .  S
C1153      H1154   1.091       .  S
C1153      C1159   1.571       .  S
C1153      C1158   1.548       .  S
C1153      C1160   1.573       .  S
C1155      C1158   1.378       .  D
C1155      C1221   1.521       .  S
C1156      C1159   1.399       .  D
C1156      C1190   1.539       .  S
C1157      C1160   1.395       .  D
C1157      C1210   1.527       .  S
C1158      C1261   1.524       .  S
C1159      C1170   1.535       .  S
C1160      C1241   1.542       .  S
C1161      C1162   1.416       .  A
C1161      C1166   1.420       .  A
C1162      C1163   1.413       .  A
C1162     Br1174   1.932   1_565  S
C1163      C1164   1.413       .  A
C1163     Br1178   1.928       .  S
C1164      C1167   1.499       .  S
C1164      C1165   1.409       .  A
C1165      C1166   1.409       .  A
C1165     Br1173   1.932       .  S
C1166     Br1177   1.935       .  S
C1167      C1168   1.404       .  A
C1167      C1172   1.405       .  A
C1168      C1169   1.412       .  A
C1168     Br1179   1.935       .  S
C1169      C1170   1.425       .  A
C1169     Br1175   1.909       .  S
C1170      C1171   1.423       .  A
C1171      C1172   1.416       .  A
C1171     Br1180   1.908       .  S
C1172     Br1176   1.933       .  S
C1181      C1182   1.413       .  A
C1181      C1186   1.411       .  A
C1182      C1183   1.408       .  A
C1182     Br1194   1.931       .  S
C1183      C1184   1.408       .  A
C1183     Br1198   1.926       .  S
C1184      C1187   1.484       .  S
C1184      C1185   1.410       .  A
C1185      C1186   1.405       .  A
C1185     Br1193   1.930       .  S
C1186     Br1197   1.931       .  S
C1187      C1188   1.404       .  A
C1187      C1192   1.400       .  A
C1188      C1189   1.414       .  A
C1188     Br1199   1.935       .  S
C1189      C1190   1.434       .  A
C1189     Br1195   1.934       .  S
C1190      C1191   1.413       .  A
C1191      C1192   1.400       .  A
C1191     Br1200   1.905       .  S
C1192     Br1196   1.924       .  S
C1201      C1202   1.419       .  A
C1201      C1206   1.411       .  A
C1202      C1203   1.410       .  A
C1202     Br1214   1.934       .  S
C1203      C1204   1.410       .  A
C1203     Br1218   1.932       .  S
C1204      C1207   1.491       .  S
C1204      C1205   1.408       .  A
C1205      C1206   1.404       .  A
C1205     Br1213   1.926       .  S
C1206     Br1217   1.923       .  S
C1207      C1208   1.404       .  A
C1207      C1212   1.404       .  A
C1208      C1209   1.412       .  A
C1208     Br1219   1.936       .  S
C1209      C1210   1.429       .  A
C1209     Br1215   1.923       .  S
C1210      C1211   1.423       .  A
C1211      C1212   1.409       .  A
C1211     Br1220   1.910       .  S
C1212     Br1216   1.939       .  S
C1221      C1222   1.423       .  A
C1221      C1226   1.423       .  A
C1222      C1223   1.411       .  A
C1222     Br1234   1.914       .  S
C1223      C1224   1.403       .  A
C1223     Br1238   1.936       .  S
C1224      C1227   1.489       .  S
C1224      C1225   1.403       .  A
C1225      C1226   1.410       .  A
C1225     Br1233   1.935       .  S
C1226     Br1237   1.913       .  S
C1227      C1228   1.408       .  A
C1227      C1232   1.408       .  A
C1228      C1229   1.408       .  A
C1228     Br1239   1.933       .  S
C1229      C1230   1.419       .  A
C1229     Br1235   1.934       .  S
C1230      C1231   1.416       .  A
C1231      C1232   1.410       .  A
C1231     Br2640   1.921       .  S
C1232     Br1236   1.932       .  S
Br1240     C2631   1.921       .  S
C1241      C1242   1.428       .  A
C1241      C1246   1.430       .  A
C1242      C1243   1.403       .  A
C1242     Br1254   1.938       .  S
C1243      C1244   1.403       .  A
C1243     Br1258   1.935       .  S
C1244      C1247   1.487       .  S
C1244      C1245   1.404       .  A
C1245      C1246   1.412       .  A
C1245     Br1253   1.935       .  S
C1246     Br1257   1.920       .  S
C1247      C1248   1.410       .  A
C1247      C1252   1.411       .  A
C1248      C1249   1.400       .  A
C1248     Br1259   1.934       .  S
C1249      C1250   1.412       .  A
C1249     Br1255   1.937       .  S
C1250      C1251   1.412       .  A
C1251      C1252   1.410       .  A
C1251     Br1260   1.927       .  S
C1252     Br1256   1.927       .  S
C1261      C1262   1.427       .  A
C1261      C1266   1.420       .  A
C1262      C1263   1.409       .  A
C1262     Br1274   1.911       .  S
C1263      C1264   1.401       .  A
C1263     Br1278   1.938       .  S
C1264      C1267   1.482       .  S
C1264      C1265   1.399       .  A
C1265      C1266   1.407       .  A
C1265     Br1273   1.934       .  S
C1266     Br1277   1.903       .  S
C1267      C1268   1.408       .  A
C1267      C1272   1.408       .  A
C1268      C1269   1.406       .  A
C1268     Br1279   1.930       .  S
C1269      C1270   1.410       .  A
C1269     Br1275   1.926       .  S
C1270      C1271   1.412       .  A
C1271      C1272   1.405       .  A
C1271     Br1280   1.933       .  S
C1272     Br1276   1.931       .  S
C1281      C1282   1.418       .  A
C1281      C1286   1.410       .  A
C1282      C1283   1.407       .  A
C1282     Br1294   1.932       .  S
C1283      C1284   1.413       .  A
C1283     Br1298   1.933       .  S
C1284      C1287   1.491       .  S
C1284      C1285   1.411       .  A
C1285      C1286   1.399       .  A
C1285     Br1293   1.932       .  S
C1286     Br1297   1.917       .  S
C1287      C1288   1.407       .  A
C1287      C1292   1.405       .  A
C1288      C1289   1.406       .  A
C1288     Br1299   1.936       .  S
C1289      C1290   1.428       .  A
C1289     Br1295   1.926       .  S
C1290      C1291   1.419       .  A
C1291      C1292   1.403       .  A
C1291     Br1300   1.922       .  S
C1292     Br1296   1.926       .  S
C1301      C1302   1.412       .  A
C1301      C1306   1.415       .  A
C1302      C1303   1.408       .  A
C1302     Br1314   1.926       .  S
C1303      C1304   1.409       .  A
C1303     Br1318   1.930       .  S
C1304      C1307   1.485       .  S
C1304      C1305   1.409       .  A
C1305      C1306   1.403       .  A
C1305     Br1313   1.929       .  S
C1306     Br1317   1.938       .  S
C1307      C1308   1.402       .  A
C1307      C1312   1.404       .  A
C1308      C1309   1.407       .  A
C1308     Br1319   1.938       .  S
C1309      C1310   1.427       .  A
C1309     Br1315   1.922       .  S
C1310      C1311   1.424       .  A
C1311      C1312   1.410       .  A
C1311     Br1320   1.926       .  S
C1312     Br1316   1.929       .  S
C1321      C1322   1.410       .  A
C1321      C1326   1.415       .  A
C1322      C1323   1.405       .  A
C1322     Br1334   1.926       .  S
C1323      C1324   1.408       .  A
C1323     Br1338   1.931       .  S
C1324      C1327   1.477       .  S
C1324      C1325   1.407       .  A
C1325      C1326   1.403       .  A
C1325     Br1333   1.933       .  S
C1326     Br1337   1.935       .  S
C1327      C1328   1.405       .  A
C1327      C1332   1.401       .  A
C1328      C1329   1.407       .  A
C1328     Br1339   1.933       .  S
C1329      C1330   1.421       .  A
C1329     Br1335   1.926       .  S
C1330      C1331   1.421       .  A
C1331      C1332   1.402       .  A
C1331     Br1340   1.922       .  S
C1332     Br1336   1.935       .  S
C1341      C1342   1.422       .  A
C1341      C1346   1.423       .  A
C1342      C1343   1.410       .  A
C1342     Br1354   1.922       .  S
C1343      C1344   1.406       .  A
C1343     Br1358   1.935       .  S
C1344      C1347   1.492       .  S
C1344      C1345   1.406       .  A
C1345      C1346   1.411       .  A
C1345     Br1353   1.935       .  S
C1346     Br1357   1.926       .  S
C1347      C1348   1.409       .  A
C1347      C1352   1.410       .  A
C1348      C1349   1.408       .  A
C1348     Br1359   1.932       .  S
C1349      C1350   1.413       .  A
C1349     Br2755   1.921       .  S
C1350      C1351   1.417       .  A
C1351      C1352   1.409       .  A
C1351     Br1360   1.933       .  S
C1352     Br1356   1.932       .  S
Br1355     C2749   1.921       .  S
C1361      C1362   1.428       .  A
C1361      C1366   1.399       .  A
C1362      C1363   1.425       .  A
C1362     Br1374   1.930       .  S
C1363      C1364   1.420       .  A
C1363     Br1378   1.929       .  S
C1364      C1367   1.497       .  S
C1364      C1365   1.407       .  A
C1365      C1366   1.392       .  A
C1365     Br1373   1.920       .  S
C1367      C1368   1.410       .  A
C1367      C1372   1.405       .  A
C1368      C1369   1.406       .  A
C1368     Br1379   1.929       .  S
C1369      C1370   1.419       .  A
C1369     Br1375   1.924       .  S
C1370      C1371   1.430       .  A
C1371      C1372   1.412       .  A
C1371     Br1380   1.920       .  S
C1372     Br1376   1.936       .  S
C1381      C1382   1.427       .  A
C1381      C1386   1.406       .  A
C1382      C1383   1.410       .  A
C1382     Br1394   1.938       .  S
C1383      C1384   1.408       .  A
C1383     Br1398   1.933       .  S
C1384      C1387   1.485       .  S
C1384      C1385   1.408       .  A
C1385      C1386   1.402       .  A
C1385     Br1393   1.926       .  S
C1387      C1388   1.404       .  A
C1387      C1392   1.404       .  A
C1388      C1389   1.406       .  A
C1388     Br1399   1.940       .  S
C1389      C1390   1.427       .  A
C1389     Br1395   1.920       .  S
C1390      C1391   1.425       .  A
C1391      C1392   1.410       .  A
C1391     Br1400   1.924       .  S
C1392     Br1396   1.932       .  S
C1401      H1402   1.105       .  S
C1401      C1407   1.550       .  S
C1401      C1406   1.551       .  S
C1401      C1405   1.551       .  S
C1403      H1404   1.102       .  S
C1403      C1409   1.549       .  S
C1403      C1408   1.557       .  S
C1403      C1410   1.543       .  S
C1405      C1408   1.391       .  D
C1405      C1720   1.526       .  S
C1406      C1409   1.390       .  D
C1406      C1660   1.517       .  S
C1407      C1410   1.376       .  D
C1407      C1680   1.505       .  S
C1408      C1740   1.519       .  S
C1409      C1640   1.519       .  S
C1410      C1691   1.517       .  S
O1411     Cu1419   1.924       .  S
O1411      C1421   1.249       .  A
O1412     Cu1769   1.921       .  S
O1412      C1422   1.249       .  A
O1413     Cu1419   2.005       .  S
O1413      C1423   1.269       .  A
O1414     Cu1769   2.000       .  S
O1414      C1424   1.266       .  A
O1415     Cu1770   2.079   1_554  S
O1415      C1424   1.286       .  A
O1416     Cu1420   2.070       .  S
O1416      C1423   1.285       .  A
O1417     Cu1770   2.115   1_554  S
O1417      C1422   1.289       .  A
O1418     Cu1420   2.110       .  S
O1418      C1421   1.287       .  A
Cu1419     O1762   1.921       .  S
Cu1419     O1764   2.000       .  S
Cu1419    Cu1420   2.233       .  S
Cu1420     O1765   2.079       .  S
Cu1420     O1767   2.115       .  S
C1421      C1488   1.508       .  S
C1422      C1456   1.511       .  S
C1423      C1472   1.503       .  S
C1424      C1497   1.509       .  S
O1425     Cu1433   2.069       .  S
O1425      C1435   1.285       .  A
O1426     Cu2483   2.062   1_545  S
O1426      C1436   1.284       .  A
O1427     Cu2133   2.100   1_545  S
O1427      C1437   1.288       .  A
O1428     Cu1783   2.097       .  S
O1428      C1438   1.287       .  A
O1429     Cu2484   1.912       .  S
O1429      C1438   1.247       .  A
O1430     Cu1434   1.913   1_545  S
O1430      C1437   1.248       .  A
O1431     Cu1784   1.999   1_545  S
O1431      C1436   1.268       .  A
O1432     Cu2134   2.001       .  S
O1432      C1435   1.268       .  A
Cu1433     O2476   2.062       .  S
Cu1433     O2127   2.100       .  S
Cu1433     O1778   2.097       .  S
Cu1433    Cu2134   2.243       .  S
Cu1434     O2479   1.912       .  S
Cu1434     O1781   1.999   1_565  S
Cu1434     O2132   2.001       .  S
Cu1434    Cu2133   2.243       .  S
C1435      C1480   1.503       .  S
C1436      C1457   1.499       .  S
C1437      C1473   1.503       .  S
C1438      C1464   1.501       .  S
O1439      C1449   1.247       .  A
O1440     Cu1447   1.912       .  S
O1440      C1450   1.248       .  A
O1441     Cu1797   1.996       .  S
O1441      C1451   1.268       .  A
O1442      C1452   1.268       .  A
O1443     Cu1448   2.067   1_655  S
O1443      C1452   1.284       .  A
O1444      C1451   1.285       .  A
O1445      C1450   1.289       .  A
O1446     Cu1798   2.106   1_655  S
O1446      C1449   1.289       .  A
Cu1447     O1791   1.996   1_554  S
Cu1448     O1796   2.106   1_454  S
C1449      C1481   1.506       .  S
C1450      C1496   1.507       .  S
C1451      C1489   1.506       .  S
C1452      C1465   1.503       .  S
C1453      C1700   1.499       .  S
C1453      C1458   1.400       .  A
C1454      C1620   1.484       .  S
C1454      C1455   1.407       .  A
C1455      C1456   1.403       .  A
C1455      H1460   1.084       .  S
C1457      C1458   1.401       .  A
C1458      H1459   1.084       .  S
C1461      C1631   1.495       .  S
C1461      C1462   1.422       .  A
C1461      C1466   1.404       .  A
C1462      C1600   1.485       .  S
C1462      C1463   1.402       .  A
C1463      C1464   1.398       .  A
C1463      H1468   1.084       .  S
C1464      C1465   1.450       .  A
C1465      C1466   1.398       .  A
C1466      H1467   1.084       .  S
C1469      C1671   1.483       .  S
C1469      C1474   1.402       .  A
C1470      C1580   1.502       .  S
C1470      C1471   1.406       .  A
C1471      C1472   1.403       .  A
C1471      H1476   1.084       .  S
C1473      C1474   1.398       .  A
C1474      H1475   1.084       .  S
C1477      C1651   1.488       .  S
C1477      C1478   1.421       .  A
C1477      C1482   1.404       .  A
C1478      C1551   1.497       .  S
C1478      C1479   1.403       .  A
C1479      C1480   1.402       .  A
C1479      H1484   1.085       .  S
C1480      C1481   1.453       .  A
C1481      C1482   1.399       .  A
C1482      H1483   1.085       .  S
C1485      C1531   1.484       .  S
C1485      C2186   1.436       .  A
C1485      C1490   1.400       .  A
C1486      C1711   1.525       .  S
C1486      C2185   1.436   1_545  A
C1486      C1487   1.416       .  A
C1487      C1488   1.409       .  A
C1487      H1492   1.083       .  S
C1488      C2189   1.449   1_545  A
C1489      C2188   1.449       .  A
C1489      C1490   1.391       .  A
C1490      H1491   1.088       .  S
C1493      C1731   1.532       .  S
C1493      C2194   1.443   1_545  A
C1493      C1498   1.413       .  A
C1494      C1511   1.503       .  S
C1494      C2193   1.443       .  A
C1494      C1495   1.414       .  A
C1495      C1496   1.399       .  A
C1495      H1500   1.084       .  S
C1496      C2197   1.445       .  A
C1497      C2196   1.445   1_545  A
C1497      C1498   1.396       .  A
C1498      H1499   1.076       .  S
C1501      H1502   1.083       .  S
C1501      C1507   1.546       .  S
C1501      C1506   1.550       .  S
C1501      C1505   1.563       .  S
C1503      H1504   1.091       .  S
C1503      C1509   1.571       .  S
C1503      C1508   1.548       .  S
C1503      C1510   1.573       .  S
C1505      C1508   1.378       .  D
C1505      C1571   1.521       .  S
C1506      C1509   1.399       .  D
C1506      C1540   1.539       .  S
C1507      C1510   1.395       .  D
C1507      C1560   1.527       .  S
C1508      C1611   1.524       .  S
C1509      C1520   1.535       .  S
C1510      C1591   1.542       .  S
C1511      C1512   1.416       .  A
C1511      C1516   1.420       .  A
C1512      C1513   1.413       .  A
C1512     Br1524   1.932       .  S
C1513      C1514   1.413       .  A
C1513     Br1528   1.928       .  S
C1514      C1517   1.499       .  S
C1514      C1515   1.409       .  A
C1515      C1516   1.409       .  A
C1515     Br1523   1.932       .  S
C1516     Br1527   1.935       .  S
C1517      C1518   1.404       .  A
C1517      C1522   1.405       .  A
C1518      C1519   1.412       .  A
C1518     Br1529   1.935       .  S
C1519      C1520   1.425       .  A
C1519     Br1525   1.909       .  S
C1520      C1521   1.423       .  A
C1521      C1522   1.416       .  A
C1521     Br1530   1.908       .  S
C1522     Br1526   1.933       .  S
C1531      C1532   1.413       .  A
C1531      C1536   1.411       .  A
C1532      C1533   1.408       .  A
C1532     Br1544   1.931       .  S
C1533      C1534   1.408       .  A
C1533     Br1548   1.926       .  S
C1534      C1537   1.484       .  S
C1534      C1535   1.410       .  A
C1535      C1536   1.405       .  A
C1535     Br1543   1.930       .  S
C1536     Br1547   1.931       .  S
C1537      C1538   1.404       .  A
C1537      C1542   1.400       .  A
C1538      C1539   1.414       .  A
C1538     Br1549   1.935       .  S
C1539      C1540   1.434       .  A
C1539     Br1545   1.934       .  S
C1540      C1541   1.413       .  A
C1541      C1542   1.400       .  A
C1541     Br1550   1.905       .  S
C1542     Br1546   1.924       .  S
C1551      C1552   1.419       .  A
C1551      C1556   1.411       .  A
C1552      C1553   1.410       .  A
C1552     Br1564   1.934       .  S
C1553      C1554   1.410       .  A
C1553     Br1568   1.932       .  S
C1554      C1557   1.491       .  S
C1554      C1555   1.408       .  A
C1555      C1556   1.404       .  A
C1555     Br1563   1.926       .  S
C1556     Br1567   1.923       .  S
C1557      C1558   1.404       .  A
C1557      C1562   1.404       .  A
C1558      C1559   1.412       .  A
C1558     Br1569   1.936       .  S
C1559      C1560   1.429       .  A
C1559     Br1565   1.923       .  S
C1560      C1561   1.423       .  A
C1561      C1562   1.409       .  A
C1561     Br1570   1.910       .  S
C1562     Br1566   1.939       .  S
C1571      C1572   1.423       .  A
C1571      C1576   1.423       .  A
C1572      C1573   1.411       .  A
C1572     Br1584   1.914       .  S
C1573      C1574   1.403       .  A
C1573     Br1588   1.936       .  S
C1574      C1577   1.489       .  S
C1574      C1575   1.403       .  A
C1575      C1576   1.410       .  A
C1575     Br1583   1.935       .  S
C1576     Br1587   1.913       .  S
C1577      C1578   1.408       .  A
C1577      C1582   1.408       .  A
C1578      C1579   1.408       .  A
C1578     Br1589   1.933       .  S
C1579      C1580   1.419       .  A
C1579     Br1585   1.934       .  S
C1580      C1581   1.416       .  A
C1581      C1582   1.410       .  A
C1582     Br1586   1.932       .  S
C1591      C1592   1.428       .  A
C1591      C1596   1.430       .  A
C1592      C1593   1.403       .  A
C1592     Br1604   1.938       .  S
C1593      C1594   1.403       .  A
C1593     Br1608   1.935       .  S
C1594      C1597   1.487       .  S
C1594      C1595   1.404       .  A
C1595      C1596   1.412       .  A
C1595     Br1603   1.935       .  S
C1596     Br1607   1.920       .  S
C1597      C1598   1.410       .  A
C1597      C1602   1.411       .  A
C1598      C1599   1.400       .  A
C1598     Br1609   1.934       .  S
C1599      C1600   1.412       .  A
C1599     Br1605   1.937       .  S
C1600      C1601   1.412       .  A
C1601      C1602   1.410       .  A
C1601     Br1610   1.927       .  S
C1602     Br1606   1.927       .  S
C1611      C1612   1.427       .  A
C1611      C1616   1.420       .  A
C1612      C1613   1.409       .  A
C1612     Br1624   1.911       .  S
C1613      C1614   1.401       .  A
C1613     Br1628   1.938       .  S
C1614      C1617   1.482       .  S
C1614      C1615   1.399       .  A
C1615      C1616   1.407       .  A
C1615     Br1623   1.934       .  S
C1616     Br1627   1.903       .  S
C1617      C1618   1.408       .  A
C1617      C1622   1.408       .  A
C1618      C1619   1.406       .  A
C1618     Br1629   1.930       .  S
C1619      C1620   1.410       .  A
C1619     Br1625   1.926       .  S
C1620      C1621   1.412       .  A
C1621      C1622   1.405       .  A
C1621     Br1630   1.933       .  S
C1622     Br1626   1.931       .  S
C1631      C1632   1.418       .  A
C1631      C1636   1.410       .  A
C1632      C1633   1.407       .  A
C1632     Br1644   1.932       .  S
C1633      C1634   1.413       .  A
C1633     Br1648   1.933       .  S
C1634      C1637   1.491       .  S
C1634      C1635   1.411       .  A
C1635      C1636   1.399       .  A
C1635     Br1643   1.932       .  S
C1636     Br1647   1.917       .  S
C1637      C1638   1.407       .  A
C1637      C1642   1.405       .  A
C1638      C1639   1.406       .  A
C1638     Br1649   1.936       .  S
C1639      C1640   1.428       .  A
C1639     Br1645   1.926       .  S
C1640      C1641   1.419       .  A
C1641      C1642   1.403       .  A
C1641     Br1650   1.922       .  S
C1642     Br1646   1.926       .  S
C1651      C1652   1.412       .  A
C1651      C1656   1.415       .  A
C1652      C1653   1.408       .  A
C1652     Br1664   1.926       .  S
C1653      C1654   1.409       .  A
C1653     Br1668   1.930       .  S
C1654      C1657   1.485       .  S
C1654      C1655   1.409       .  A
C1655      C1656   1.403       .  A
C1655     Br1663   1.929       .  S
C1656     Br1667   1.938       .  S
C1657      C1658   1.402       .  A
C1657      C1662   1.404       .  A
C1658      C1659   1.407       .  A
C1658     Br1669   1.938       .  S
C1659      C1660   1.427       .  A
C1659     Br1665   1.922       .  S
C1660      C1661   1.424       .  A
C1661      C1662   1.410       .  A
C1661     Br1670   1.926       .  S
C1662     Br1666   1.929       .  S
C1671      C1672   1.410       .  A
C1671      C1676   1.415       .  A
C1672      C1673   1.405       .  A
C1672     Br1684   1.926       .  S
C1673      C1674   1.408       .  A
C1673     Br1688   1.931       .  S
C1674      C1677   1.477       .  S
C1674      C1675   1.407       .  A
C1675      C1676   1.403       .  A
C1675     Br1683   1.933       .  S
C1676     Br1687   1.935       .  S
C1677      C1678   1.405       .  A
C1677      C1682   1.401       .  A
C1678      C1679   1.407       .  A
C1678     Br1689   1.933       .  S
C1679      C1680   1.421       .  A
C1679     Br1685   1.926       .  S
C1680      C1681   1.421       .  A
C1681      C1682   1.402       .  A
C1681     Br1690   1.922       .  S
C1682     Br1686   1.935       .  S
C1691      C1692   1.422       .  A
C1691      C1696   1.423       .  A
C1692      C1693   1.410       .  A
C1692     Br1704   1.922       .  S
C1693      C1694   1.406       .  A
C1693     Br1708   1.935       .  S
C1694      C1697   1.492       .  S
C1694      C1695   1.406       .  A
C1695      C1696   1.411       .  A
C1695     Br1703   1.935       .  S
C1696     Br1707   1.926       .  S
C1697      C1698   1.409       .  A
C1697      C1702   1.410       .  A
C1698      C1699   1.408       .  A
C1698     Br1709   1.932       .  S
C1699      C1700   1.413       .  A
C1700      C1701   1.417       .  A
C1701      C1702   1.409       .  A
C1701     Br1710   1.933       .  S
C1702     Br1706   1.932       .  S
C1711      C1712   1.428       .  A
C1711      C1716   1.399       .  A
C1712      C1713   1.425       .  A
C1712     Br1724   1.930       .  S
C1713      C1714   1.420       .  A
C1713     Br1728   1.929       .  S
C1714      C1717   1.497       .  S
C1714      C1715   1.407       .  A
C1715      C1716   1.392       .  A
C1715     Br1723   1.920       .  S
C1716     Br2427   1.920   1_545  S
C1717      C1718   1.410       .  A
C1717      C1722   1.405       .  A
C1718      C1719   1.406       .  A
C1718     Br1729   1.929       .  S
C1719      C1720   1.419       .  A
C1719     Br1725   1.924       .  S
C1720      C1721   1.430       .  A
C1721      C1722   1.412       .  A
C1721     Br1730   1.920       .  S
C1722     Br1726   1.936       .  S
Br1727     C2416   1.920       .  S
C1731      C1732   1.427       .  A
C1731      C1736   1.406       .  A
C1732      C1733   1.410       .  A
C1732     Br1744   1.938       .  S
C1733      C1734   1.408       .  A
C1733     Br1748   1.933       .  S
C1734      C1737   1.485       .  S
C1734      C1735   1.408       .  A
C1735      C1736   1.402       .  A
C1735     Br1743   1.926       .  S
C1736     Br2447   1.920       .  S
C1737      C1738   1.404       .  A
C1737      C1742   1.404       .  A
C1738      C1739   1.406       .  A
C1738     Br1749   1.940       .  S
C1739      C1740   1.427       .  A
C1739     Br1745   1.920       .  S
C1740      C1741   1.425       .  A
C1741      C1742   1.410       .  A
C1741     Br1750   1.924       .  S
C1742     Br1746   1.932       .  S
Br1747     C2436   1.920       .  S
C1751      H1752   1.105       .  S
C1751      C1757   1.550       .  S
C1751      C1756   1.551       .  S
C1751      C1755   1.551       .  S
C1753      H1754   1.102       .  S
C1753      C1759   1.549       .  S
C1753      C1758   1.557       .  S
C1753      C1760   1.543       .  S
C1755      C1758   1.391       .  D
C1755      C2070   1.526       .  S
C1756      C1759   1.390       .  D
C1756      C2010   1.517       .  S
C1757      C1760   1.376       .  D
C1757      C2030   1.505       .  S
C1758      C2090   1.519       .  S
C1759      C1990   1.519       .  S
C1760      C2041   1.517       .  S
O1761     Cu1769   1.924   1_556  S
O1761      C1771   1.249       .  A
O1762      C1772   1.249       .  A
O1763     Cu1769   2.005   1_556  S
O1763      C1773   1.269       .  A
O1764      C1774   1.266       .  A
O1765      C1774   1.286       .  A
O1766     Cu1770   2.070       .  S
O1766      C1773   1.285       .  A
O1767      C1772   1.289       .  A
O1768     Cu1770   2.110       .  S
O1768      C1771   1.287       .  A
Cu1769    Cu1770   2.233   1_554  S
C1771      C1838   1.508       .  S
C1772      C1806   1.511       .  S
C1773      C1822   1.503       .  S
C1774      C1847   1.509       .  S
O1775     Cu1783   2.069   1_556  S
O1775      C1785   1.285       .  A
O1776     Cu2133   2.062   1_545  S
O1776      C1786   1.284       .  A
O1777     Cu2483   2.100   1_546  S
O1777      C1787   1.288       .  A
O1778      C1788   1.287       .  A
O1779     Cu2134   1.912       .  S
O1779      C1788   1.247       .  A
O1780     Cu1784   1.913   1_546  S
O1780      C1787   1.248       .  A
O1781      C1786   1.268       .  A
O1782     Cu2484   2.001   1_556  S
O1782      C1785   1.268       .  A
Cu1783     O2126   2.062       .  S
Cu1783     O2477   2.100   1_554  S
Cu1783    Cu2484   2.243       .  S
Cu1784     O2129   1.912       .  S
Cu1784     O2482   2.001   1_554  S
Cu1784    Cu2483   2.243       .  S
C1785      C1830   1.503       .  S
C1786      C1807   1.499       .  S
C1787      C1823   1.503       .  S
C1788      C1814   1.501       .  S
O1789      C1799   1.247       .  A
O1790     Cu1797   1.912       .  S
O1790      C1800   1.248       .  A
O1791      C1801   1.268       .  A
O1792      C1802   1.268       .  A
O1793     Cu1798   2.067   1_655  S
O1793      C1802   1.284       .  A
O1794      C1801   1.285       .  A
O1795      C1800   1.289       .  A
O1796      C1799   1.289       .  A
C1799      C1831   1.506       .  S
C1800      C1846   1.507       .  S
C1801      C1839   1.506       .  S
C1802      C1815   1.503       .  S
C1803      C2050   1.499       .  S
C1803      C1808   1.400       .  A
C1804      C1970   1.484       .  S
C1804      C1805   1.407       .  A
C1805      C1806   1.403       .  A
C1805      H1810   1.084       .  S
C1807      C1808   1.401       .  A
C1808      H1809   1.084       .  S
C1811      C1981   1.495       .  S
C1811      C1812   1.422       .  A
C1811      C1816   1.404       .  A
C1812      C1950   1.485       .  S
C1812      C1813   1.402       .  A
C1813      C1814   1.398       .  A
C1813      H1818   1.084       .  S
C1814      C1815   1.450       .  A
C1815      C1816   1.398       .  A
C1816      H1817   1.084       .  S
C1819      C2021   1.483       .  S
C1819      C1824   1.402       .  A
C1820      C1930   1.502       .  S
C1820      C1821   1.406       .  A
C1821      C1822   1.403       .  A
C1821      H1826   1.084       .  S
C1823      C1824   1.398       .  A
C1824      H1825   1.084       .  S
C1827      C2001   1.488       .  S
C1827      C1828   1.421       .  A
C1827      C1832   1.404       .  A
C1828      C1901   1.497       .  S
C1828      C1829   1.403       .  A
C1829      C1830   1.402       .  A
C1829      H1834   1.085       .  S
C1830      C1831   1.453       .  A
C1831      C1832   1.399       .  A
C1832      H1833   1.085       .  S
C1835      C1881   1.484       .  S
C1835      C2536   1.436       .  A
C1835      C1840   1.400       .  A
C1836      C2061   1.525       .  S
C1836      C2535   1.436   1_545  A
C1836      C1837   1.416       .  A
C1837      C1838   1.409       .  A
C1837      H1842   1.083       .  S
C1838      C2539   1.449   1_545  A
C1839      C2538   1.449       .  A
C1839      C1840   1.391       .  A
C1840      H1841   1.088       .  S
C1843      C2081   1.532       .  S
C1843      C2544   1.443   1_545  A
C1843      C1848   1.413       .  A
C1844      C1861   1.503       .  S
C1844      C2543   1.443       .  A
C1844      C1845   1.414       .  A
C1845      C1846   1.399       .  A
C1845      H1850   1.084       .  S
C1846      C2547   1.445       .  A
C1847      C2546   1.445   1_545  A
C1847      C1848   1.396       .  A
C1848      H1849   1.076       .  S
C1851      H1852   1.083       .  S
C1851      C1857   1.546       .  S
C1851      C1856   1.550       .  S
C1851      C1855   1.563       .  S
C1853      H1854   1.091       .  S
C1853      C1859   1.571       .  S
C1853      C1858   1.548       .  S
C1853      C1860   1.573       .  S
C1855      C1858   1.378       .  D
C1855      C1921   1.521       .  S
C1856      C1859   1.399       .  D
C1856      C1890   1.539       .  S
C1857      C1860   1.395       .  D
C1857      C1910   1.527       .  S
C1858      C1961   1.524       .  S
C1859      C1870   1.535       .  S
C1860      C1941   1.542       .  S
C1861      C1862   1.416       .  A
C1861      C1866   1.420       .  A
C1862      C1863   1.413       .  A
C1862     Br1874   1.932       .  S
C1863      C1864   1.413       .  A
C1863     Br1878   1.928       .  S
C1864      C1867   1.499       .  S
C1864      C1865   1.409       .  A
C1865      C1866   1.409       .  A
C1865     Br1873   1.932       .  S
C1866     Br1877   1.935       .  S
C1867      C1868   1.404       .  A
C1867      C1872   1.405       .  A
C1868      C1869   1.412       .  A
C1868     Br1879   1.935       .  S
C1869      C1870   1.425       .  A
C1869     Br1875   1.909       .  S
C1870      C1871   1.423       .  A
C1871      C1872   1.416       .  A
C1871     Br1880   1.908       .  S
C1872     Br1876   1.933       .  S
C1881      C1882   1.413       .  A
C1881      C1886   1.411       .  A
C1882      C1883   1.408       .  A
C1882     Br1894   1.931       .  S
C1883      C1884   1.408       .  A
C1883     Br1898   1.926       .  S
C1884      C1887   1.484       .  S
C1884      C1885   1.410       .  A
C1885      C1886   1.405       .  A
C1885     Br1893   1.930       .  S
C1886     Br1897   1.931       .  S
C1887      C1888   1.404       .  A
C1887      C1892   1.400       .  A
C1888      C1889   1.414       .  A
C1888     Br1899   1.935       .  S
C1889      C1890   1.434       .  A
C1889     Br1895   1.934       .  S
C1890      C1891   1.413       .  A
C1891      C1892   1.400       .  A
C1891     Br1900   1.905       .  S
C1892     Br1896   1.924       .  S
C1901      C1902   1.419       .  A
C1901      C1906   1.411       .  A
C1902      C1903   1.410       .  A
C1902     Br1914   1.934       .  S
C1903      C1904   1.410       .  A
C1903     Br1918   1.932       .  S
C1904      C1907   1.491       .  S
C1904      C1905   1.408       .  A
C1905      C1906   1.404       .  A
C1905     Br1913   1.926       .  S
C1906     Br1917   1.923       .  S
C1907      C1908   1.404       .  A
C1907      C1912   1.404       .  A
C1908      C1909   1.412       .  A
C1908     Br1919   1.936       .  S
C1909      C1910   1.429       .  A
C1909     Br1915   1.923       .  S
C1910      C1911   1.423       .  A
C1911      C1912   1.409       .  A
C1911     Br1920   1.910       .  S
C1912     Br1916   1.939       .  S
C1921      C1922   1.423       .  A
C1921      C1926   1.423       .  A
C1922      C1923   1.411       .  A
C1922     Br1934   1.914       .  S
C1923      C1924   1.403       .  A
C1923     Br1938   1.936       .  S
C1924      C1927   1.489       .  S
C1924      C1925   1.403       .  A
C1925      C1926   1.410       .  A
C1925     Br1933   1.935       .  S
C1926     Br1937   1.913       .  S
C1927      C1928   1.408       .  A
C1927      C1932   1.408       .  A
C1928      C1929   1.408       .  A
C1928     Br1939   1.933       .  S
C1929      C1930   1.419       .  A
C1929     Br1935   1.934       .  S
C1930      C1931   1.416       .  A
C1931      C1932   1.410       .  A
C1932     Br1936   1.932       .  S
C1941      C1942   1.428       .  A
C1941      C1946   1.430       .  A
C1942      C1943   1.403       .  A
C1942     Br1954   1.938       .  S
C1943      C1944   1.403       .  A
C1943     Br1958   1.935       .  S
C1944      C1947   1.487       .  S
C1944      C1945   1.404       .  A
C1945      C1946   1.412       .  A
C1945     Br1953   1.935       .  S
C1946     Br1957   1.920       .  S
C1947      C1948   1.410       .  A
C1947      C1952   1.411       .  A
C1948      C1949   1.400       .  A
C1948     Br1959   1.934       .  S
C1949      C1950   1.412       .  A
C1949     Br1955   1.937       .  S
C1950      C1951   1.412       .  A
C1951      C1952   1.410       .  A
C1951     Br1960   1.927       .  S
C1952     Br1956   1.927       .  S
C1961      C1962   1.427       .  A
C1961      C1966   1.420       .  A
C1962      C1963   1.409       .  A
C1962     Br1974   1.911       .  S
C1963      C1964   1.401       .  A
C1963     Br1978   1.938       .  S
C1964      C1967   1.482       .  S
C1964      C1965   1.399       .  A
C1965      C1966   1.407       .  A
C1965     Br1973   1.934       .  S
C1966     Br1977   1.903       .  S
C1967      C1968   1.408       .  A
C1967      C1972   1.408       .  A
C1968      C1969   1.406       .  A
C1968     Br1979   1.930       .  S
C1969      C1970   1.410       .  A
C1969     Br1975   1.926       .  S
C1970      C1971   1.412       .  A
C1971      C1972   1.405       .  A
C1971     Br1980   1.933       .  S
C1972     Br1976   1.931       .  S
C1981      C1982   1.418       .  A
C1981      C1986   1.410       .  A
C1982      C1983   1.407       .  A
C1982     Br1994   1.932       .  S
C1983      C1984   1.413       .  A
C1983     Br1998   1.933       .  S
C1984      C1987   1.491       .  S
C1984      C1985   1.411       .  A
C1985      C1986   1.399       .  A
C1985     Br1993   1.932       .  S
C1986     Br1997   1.917       .  S
C1987      C1988   1.407       .  A
C1987      C1992   1.405       .  A
C1988      C1989   1.406       .  A
C1988     Br1999   1.936       .  S
C1989      C1990   1.428       .  A
C1989     Br1995   1.926       .  S
C1990      C1991   1.419       .  A
C1991      C1992   1.403       .  A
C1991     Br2000   1.922       .  S
C1992     Br1996   1.926       .  S
C2001      C2002   1.412       .  A
C2001      C2006   1.415       .  A
C2002      C2003   1.408       .  A
C2002     Br2014   1.926       .  S
C2003      C2004   1.409       .  A
C2003     Br2018   1.930       .  S
C2004      C2007   1.485       .  S
C2004      C2005   1.409       .  A
C2005      C2006   1.403       .  A
C2005     Br2013   1.929       .  S
C2006     Br2017   1.938       .  S
C2007      C2008   1.402       .  A
C2007      C2012   1.404       .  A
C2008      C2009   1.407       .  A
C2008     Br2019   1.938       .  S
C2009      C2010   1.427       .  A
C2009     Br2015   1.922       .  S
C2010      C2011   1.424       .  A
C2011      C2012   1.410       .  A
C2011     Br2020   1.926       .  S
C2012     Br2016   1.929       .  S
C2021      C2022   1.410       .  A
C2021      C2026   1.415       .  A
C2022      C2023   1.405       .  A
C2022     Br2034   1.926       .  S
C2023      C2024   1.408       .  A
C2023     Br2038   1.931       .  S
C2024      C2027   1.477       .  S
C2024      C2025   1.407       .  A
C2025      C2026   1.403       .  A
C2025     Br2033   1.933       .  S
C2026     Br2037   1.935       .  S
C2027      C2028   1.405       .  A
C2027      C2032   1.401       .  A
C2028      C2029   1.407       .  A
C2028     Br2039   1.933       .  S
C2029      C2030   1.421       .  A
C2029     Br2035   1.926       .  S
C2030      C2031   1.421       .  A
C2031      C2032   1.402       .  A
C2031     Br2040   1.922       .  S
C2032     Br2036   1.935       .  S
C2041      C2042   1.422       .  A
C2041      C2046   1.423       .  A
C2042      C2043   1.410       .  A
C2042     Br2054   1.922       .  S
C2043      C2044   1.406       .  A
C2043     Br2058   1.935       .  S
C2044      C2047   1.492       .  S
C2044      C2045   1.406       .  A
C2045      C2046   1.411       .  A
C2045     Br2053   1.935       .  S
C2046     Br2057   1.926       .  S
C2047      C2048   1.409       .  A
C2047      C2052   1.410       .  A
C2048      C2049   1.408       .  A
C2048     Br2059   1.932       .  S
C2049      C2050   1.413       .  A
C2050      C2051   1.417       .  A
C2051      C2052   1.409       .  A
C2051     Br2060   1.933       .  S
C2052     Br2056   1.932       .  S
C2061      C2062   1.428       .  A
C2061      C2066   1.399       .  A
C2062      C2063   1.425       .  A
C2062     Br2074   1.930       .  S
C2063      C2064   1.420       .  A
C2063     Br2078   1.929       .  S
C2064      C2067   1.497       .  S
C2064      C2065   1.407       .  A
C2065      C2066   1.392       .  A
C2065     Br2073   1.920       .  S
C2066     Br2777   1.920   1_545  S
C2067      C2068   1.410       .  A
C2067      C2072   1.405       .  A
C2068      C2069   1.406       .  A
C2068     Br2079   1.929       .  S
C2069      C2070   1.419       .  A
C2069     Br2075   1.924       .  S
C2070      C2071   1.430       .  A
C2071      C2072   1.412       .  A
C2071     Br2080   1.920       .  S
C2072     Br2076   1.936       .  S
Br2077     C2766   1.920       .  S
C2081      C2082   1.427       .  A
C2081      C2086   1.406       .  A
C2082      C2083   1.410       .  A
C2082     Br2094   1.938       .  S
C2083      C2084   1.408       .  A
C2083     Br2098   1.933       .  S
C2084      C2087   1.485       .  S
C2084      C2085   1.408       .  A
C2085      C2086   1.402       .  A
C2085     Br2093   1.926       .  S
C2086     Br2797   1.920       .  S
C2087      C2088   1.404       .  A
C2087      C2092   1.404       .  A
C2088      C2089   1.406       .  A
C2088     Br2099   1.940       .  S
C2089      C2090   1.427       .  A
C2089     Br2095   1.920       .  S
C2090      C2091   1.425       .  A
C2091      C2092   1.410       .  A
C2091     Br2100   1.924       .  S
C2092     Br2096   1.932       .  S
Br2097     C2786   1.920       .  S
C2101      H2102   1.105       .  S
C2101      C2107   1.550       .  S
C2101      C2106   1.551       .  S
C2101      C2105   1.551       .  S
C2103      H2104   1.102       .  S
C2103      C2109   1.549       .  S
C2103      C2108   1.557       .  S
C2103      C2110   1.543       .  S
C2105      C2108   1.391       .  D
C2105      C2420   1.526       .  S
C2106      C2109   1.390       .  D
C2106      C2360   1.517       .  S
C2107      C2110   1.376       .  D
C2107      C2380   1.505       .  S
C2108      C2440   1.519       .  S
C2109      C2340   1.519       .  S
C2110      C2391   1.517       .  S
O2111     Cu2119   1.924       .  S
O2111      C2121   1.249       .  A
O2112     Cu2469   1.921       .  S
O2112      C2122   1.249       .  A
O2113     Cu2119   2.005       .  S
O2113      C2123   1.269       .  A
O2114     Cu2469   2.000       .  S
O2114      C2124   1.266       .  A
O2115     Cu2470   2.079   1_554  S
O2115      C2124   1.286       .  A
O2116     Cu2120   2.070       .  S
O2116      C2123   1.285       .  A
O2117     Cu2470   2.115   1_554  S
O2117      C2122   1.289       .  A
O2118     Cu2120   2.110       .  S
O2118      C2121   1.287       .  A
Cu2119     O2462   1.921       .  S
Cu2119     O2464   2.000       .  S
Cu2119    Cu2120   2.233       .  S
Cu2120     O2465   2.079       .  S
Cu2120     O2467   2.115       .  S
C2121      C2188   1.508       .  S
C2122      C2156   1.511       .  S
C2123      C2172   1.503       .  S
C2124      C2197   1.509       .  S
O2125     Cu2133   2.069       .  S
O2125      C2135   1.285       .  A
O2126      C2136   1.284       .  A
O2127      C2137   1.288       .  A
O2128     Cu2483   2.097       .  S
O2128      C2138   1.287       .  A
O2129      C2138   1.247       .  A
O2130     Cu2134   1.913       .  S
O2130      C2137   1.248       .  A
O2131     Cu2484   1.999       .  S
O2131      C2136   1.268       .  A
O2132      C2135   1.268       .  A
Cu2133     O2478   2.097       .  S
Cu2134     O2481   1.999       .  S
C2135      C2180   1.503       .  S
C2136      C2157   1.499       .  S
C2137      C2173   1.503       .  S
C2138      C2164   1.501       .  S
O2139      C2149   1.247       .  A
O2140     Cu2147   1.912       .  S
O2140      C2150   1.248       .  A
O2141     Cu2497   1.996       .  S
O2141      C2151   1.268       .  A
O2142      C2152   1.268       .  A
O2143     Cu2148   2.067   1_655  S
O2143      C2152   1.284       .  A
O2144      C2151   1.285       .  A
O2145      C2150   1.289       .  A
O2146     Cu2498   2.106   1_655  S
O2146      C2149   1.289       .  A
Cu2147     O2491   1.996   1_554  S
Cu2148     O2496   2.106   1_454  S
C2149      C2181   1.506       .  S
C2150      C2196   1.507       .  S
C2151      C2189   1.506       .  S
C2152      C2165   1.503       .  S
C2153      C2400   1.499       .  S
C2153      C2158   1.400       .  A
C2154      C2320   1.484       .  S
C2154      C2155   1.407       .  A
C2155      C2156   1.403       .  A
C2155      H2160   1.084       .  S
C2157      C2158   1.401       .  A
C2158      H2159   1.084       .  S
C2161      C2331   1.495       .  S
C2161      C2162   1.422       .  A
C2161      C2166   1.404       .  A
C2162      C2300   1.485       .  S
C2162      C2163   1.402       .  A
C2163      C2164   1.398       .  A
C2163      H2168   1.084       .  S
C2164      C2165   1.450       .  A
C2165      C2166   1.398       .  A
C2166      H2167   1.084       .  S
C2169      C2371   1.483       .  S
C2169      C2174   1.402       .  A
C2170      C2280   1.502       .  S
C2170      C2171   1.406       .  A
C2171      C2172   1.403       .  A
C2171      H2176   1.084       .  S
C2173      C2174   1.398       .  A
C2174      H2175   1.084       .  S
C2177      C2351   1.488       .  S
C2177      C2178   1.421       .  A
C2177      C2182   1.404       .  A
C2178      C2251   1.497       .  S
C2178      C2179   1.403       .  A
C2179      C2180   1.402       .  A
C2179      H2184   1.085       .  S
C2180      C2181   1.453       .  A
C2181      C2182   1.399       .  A
C2182      H2183   1.085       .  S
C2185      C2231   1.484       .  S
C2185      C2190   1.400       .  A
C2186      C2411   1.525       .  S
C2186      C2187   1.416       .  A
C2187      C2188   1.409       .  A
C2187      H2192   1.083       .  S
C2189      C2190   1.391       .  A
C2190      H2191   1.088       .  S
C2193      C2431   1.532       .  S
C2193      C2198   1.413       .  A
C2194      C2211   1.503       .  S
C2194      C2195   1.414       .  A
C2195      C2196   1.399       .  A
C2195      H2200   1.084       .  S
C2197      C2198   1.396       .  A
C2198      H2199   1.076       .  S
C2201      H2202   1.083       .  S
C2201      C2207   1.546       .  S
C2201      C2206   1.550       .  S
C2201      C2205   1.563       .  S
C2203      H2204   1.091       .  S
C2203      C2209   1.571       .  S
C2203      C2208   1.548       .  S
C2203      C2210   1.573       .  S
C2205      C2208   1.378       .  D
C2205      C2271   1.521       .  S
C2206      C2209   1.399       .  D
C2206      C2240   1.539       .  S
C2207      C2210   1.395       .  D
C2207      C2260   1.527       .  S
C2208      C2311   1.524       .  S
C2209      C2220   1.535       .  S
C2210      C2291   1.542       .  S
C2211      C2212   1.416       .  A
C2211      C2216   1.420       .  A
C2212      C2213   1.413       .  A
C2212     Br2224   1.932   1_565  S
C2213      C2214   1.413       .  A
C2213     Br2228   1.928       .  S
C2214      C2217   1.499       .  S
C2214      C2215   1.409       .  A
C2215      C2216   1.409       .  A
C2215     Br2223   1.932       .  S
C2216     Br2227   1.935       .  S
C2217      C2218   1.404       .  A
C2217      C2222   1.405       .  A
C2218      C2219   1.412       .  A
C2218     Br2229   1.935       .  S
C2219      C2220   1.425       .  A
C2219     Br2225   1.909       .  S
C2220      C2221   1.423       .  A
C2221      C2222   1.416       .  A
C2221     Br2230   1.908       .  S
C2222     Br2226   1.933       .  S
C2231      C2232   1.413       .  A
C2231      C2236   1.411       .  A
C2232      C2233   1.408       .  A
C2232     Br2244   1.931       .  S
C2233      C2234   1.408       .  A
C2233     Br2248   1.926       .  S
C2234      C2237   1.484       .  S
C2234      C2235   1.410       .  A
C2235      C2236   1.405       .  A
C2235     Br2243   1.930       .  S
C2236     Br2247   1.931       .  S
C2237      C2238   1.404       .  A
C2237      C2242   1.400       .  A
C2238      C2239   1.414       .  A
C2238     Br2249   1.935       .  S
C2239      C2240   1.434       .  A
C2239     Br2245   1.934       .  S
C2240      C2241   1.413       .  A
C2241      C2242   1.400       .  A
C2241     Br2250   1.905       .  S
C2242     Br2246   1.924       .  S
C2251      C2252   1.419       .  A
C2251      C2256   1.411       .  A
C2252      C2253   1.410       .  A
C2252     Br2264   1.934       .  S
C2253      C2254   1.410       .  A
C2253     Br2268   1.932       .  S
C2254      C2257   1.491       .  S
C2254      C2255   1.408       .  A
C2255      C2256   1.404       .  A
C2255     Br2263   1.926       .  S
C2256     Br2267   1.923       .  S
C2257      C2258   1.404       .  A
C2257      C2262   1.404       .  A
C2258      C2259   1.412       .  A
C2258     Br2269   1.936       .  S
C2259      C2260   1.429       .  A
C2259     Br2265   1.923       .  S
C2260      C2261   1.423       .  A
C2261      C2262   1.409       .  A
C2261     Br2270   1.910       .  S
C2262     Br2266   1.939       .  S
C2271      C2272   1.423       .  A
C2271      C2276   1.423       .  A
C2272      C2273   1.411       .  A
C2272     Br2284   1.914       .  S
C2273      C2274   1.403       .  A
C2273     Br2288   1.936       .  S
C2274      C2277   1.489       .  S
C2274      C2275   1.403       .  A
C2275      C2276   1.410       .  A
C2275     Br2283   1.935       .  S
C2276     Br2287   1.913       .  S
C2277      C2278   1.408       .  A
C2277      C2282   1.408       .  A
C2278      C2279   1.408       .  A
C2278     Br2289   1.933       .  S
C2279      C2280   1.419       .  A
C2279     Br2285   1.934       .  S
C2280      C2281   1.416       .  A
C2281      C2282   1.410       .  A
C2282     Br2286   1.932       .  S
C2291      C2292   1.428       .  A
C2291      C2296   1.430       .  A
C2292      C2293   1.403       .  A
C2292     Br2304   1.938       .  S
C2293      C2294   1.403       .  A
C2293     Br2308   1.935       .  S
C2294      C2297   1.487       .  S
C2294      C2295   1.404       .  A
C2295      C2296   1.412       .  A
C2295     Br2303   1.935       .  S
C2296     Br2307   1.920       .  S
C2297      C2298   1.410       .  A
C2297      C2302   1.411       .  A
C2298      C2299   1.400       .  A
C2298     Br2309   1.934       .  S
C2299      C2300   1.412       .  A
C2299     Br2305   1.937       .  S
C2300      C2301   1.412       .  A
C2301      C2302   1.410       .  A
C2301     Br2310   1.927       .  S
C2302     Br2306   1.927       .  S
C2311      C2312   1.427       .  A
C2311      C2316   1.420       .  A
C2312      C2313   1.409       .  A
C2312     Br2324   1.911       .  S
C2313      C2314   1.401       .  A
C2313     Br2328   1.938       .  S
C2314      C2317   1.482       .  S
C2314      C2315   1.399       .  A
C2315      C2316   1.407       .  A
C2315     Br2323   1.934       .  S
C2316     Br2327   1.903       .  S
C2317      C2318   1.408       .  A
C2317      C2322   1.408       .  A
C2318      C2319   1.406       .  A
C2318     Br2329   1.930       .  S
C2319      C2320   1.410       .  A
C2319     Br2325   1.926       .  S
C2320      C2321   1.412       .  A
C2321      C2322   1.405       .  A
C2321     Br2330   1.933       .  S
C2322     Br2326   1.931       .  S
C2331      C2332   1.418       .  A
C2331      C2336   1.410       .  A
C2332      C2333   1.407       .  A
C2332     Br2344   1.932       .  S
C2333      C2334   1.413       .  A
C2333     Br2348   1.933       .  S
C2334      C2337   1.491       .  S
C2334      C2335   1.411       .  A
C2335      C2336   1.399       .  A
C2335     Br2343   1.932       .  S
C2336     Br2347   1.917       .  S
C2337      C2338   1.407       .  A
C2337      C2342   1.405       .  A
C2338      C2339   1.406       .  A
C2338     Br2349   1.936       .  S
C2339      C2340   1.428       .  A
C2339     Br2345   1.926       .  S
C2340      C2341   1.419       .  A
C2341      C2342   1.403       .  A
C2341     Br2350   1.922       .  S
C2342     Br2346   1.926       .  S
C2351      C2352   1.412       .  A
C2351      C2356   1.415       .  A
C2352      C2353   1.408       .  A
C2352     Br2364   1.926       .  S
C2353      C2354   1.409       .  A
C2353     Br2368   1.930       .  S
C2354      C2357   1.485       .  S
C2354      C2355   1.409       .  A
C2355      C2356   1.403       .  A
C2355     Br2363   1.929       .  S
C2356     Br2367   1.938       .  S
C2357      C2358   1.402       .  A
C2357      C2362   1.404       .  A
C2358      C2359   1.407       .  A
C2358     Br2369   1.938       .  S
C2359      C2360   1.427       .  A
C2359     Br2365   1.922       .  S
C2360      C2361   1.424       .  A
C2361      C2362   1.410       .  A
C2361     Br2370   1.926       .  S
C2362     Br2366   1.929       .  S
C2371      C2372   1.410       .  A
C2371      C2376   1.415       .  A
C2372      C2373   1.405       .  A
C2372     Br2384   1.926       .  S
C2373      C2374   1.408       .  A
C2373     Br2388   1.931       .  S
C2374      C2377   1.477       .  S
C2374      C2375   1.407       .  A
C2375      C2376   1.403       .  A
C2375     Br2383   1.933       .  S
C2376     Br2387   1.935       .  S
C2377      C2378   1.405       .  A
C2377      C2382   1.401       .  A
C2378      C2379   1.407       .  A
C2378     Br2389   1.933       .  S
C2379      C2380   1.421       .  A
C2379     Br2385   1.926       .  S
C2380      C2381   1.421       .  A
C2381      C2382   1.402       .  A
C2381     Br2390   1.922       .  S
C2382     Br2386   1.935       .  S
C2391      C2392   1.422       .  A
C2391      C2396   1.423       .  A
C2392      C2393   1.410       .  A
C2392     Br2404   1.922       .  S
C2393      C2394   1.406       .  A
C2393     Br2408   1.935       .  S
C2394      C2397   1.492       .  S
C2394      C2395   1.406       .  A
C2395      C2396   1.411       .  A
C2395     Br2403   1.935       .  S
C2396     Br2407   1.926       .  S
C2397      C2398   1.409       .  A
C2397      C2402   1.410       .  A
C2398      C2399   1.408       .  A
C2398     Br2409   1.932       .  S
C2399      C2400   1.413       .  A
C2400      C2401   1.417       .  A
C2401      C2402   1.409       .  A
C2401     Br2410   1.933       .  S
C2402     Br2406   1.932       .  S
C2411      C2412   1.428       .  A
C2411      C2416   1.399       .  A
C2412      C2413   1.425       .  A
C2412     Br2424   1.930       .  S
C2413      C2414   1.420       .  A
C2413     Br2428   1.929       .  S
C2414      C2417   1.497       .  S
C2414      C2415   1.407       .  A
C2415      C2416   1.392       .  A
C2415     Br2423   1.920       .  S
C2417      C2418   1.410       .  A
C2417      C2422   1.405       .  A
C2418      C2419   1.406       .  A
C2418     Br2429   1.929       .  S
C2419      C2420   1.419       .  A
C2419     Br2425   1.924       .  S
C2420      C2421   1.430       .  A
C2421      C2422   1.412       .  A
C2421     Br2430   1.920       .  S
C2422     Br2426   1.936       .  S
C2431      C2432   1.427       .  A
C2431      C2436   1.406       .  A
C2432      C2433   1.410       .  A
C2432     Br2444   1.938       .  S
C2433      C2434   1.408       .  A
C2433     Br2448   1.933       .  S
C2434      C2437   1.485       .  S
C2434      C2435   1.408       .  A
C2435      C2436   1.402       .  A
C2435     Br2443   1.926       .  S
C2437      C2438   1.404       .  A
C2437      C2442   1.404       .  A
C2438      C2439   1.406       .  A
C2438     Br2449   1.940       .  S
C2439      C2440   1.427       .  A
C2439     Br2445   1.920       .  S
C2440      C2441   1.425       .  A
C2441      C2442   1.410       .  A
C2441     Br2450   1.924       .  S
C2442     Br2446   1.932       .  S
C2451      H2452   1.105       .  S
C2451      C2457   1.550       .  S
C2451      C2456   1.551       .  S
C2451      C2455   1.551       .  S
C2453      H2454   1.102       .  S
C2453      C2459   1.549       .  S
C2453      C2458   1.557       .  S
C2453      C2460   1.543       .  S
C2455      C2458   1.391       .  D
C2455      C2770   1.526       .  S
C2456      C2459   1.390       .  D
C2456      C2710   1.517       .  S
C2457      C2460   1.376       .  D
C2457      C2730   1.505       .  S
C2458      C2790   1.519       .  S
C2459      C2690   1.519       .  S
C2460      C2741   1.517       .  S
O2461     Cu2469   1.924   1_556  S
O2461      C2471   1.249       .  A
O2462      C2472   1.249       .  A
O2463     Cu2469   2.005   1_556  S
O2463      C2473   1.269       .  A
O2464      C2474   1.266       .  A
O2465      C2474   1.286       .  A
O2466     Cu2470   2.070       .  S
O2466      C2473   1.285       .  A
O2467      C2472   1.289       .  A
O2468     Cu2470   2.110       .  S
O2468      C2471   1.287       .  A
Cu2469    Cu2470   2.233   1_554  S
C2471      C2538   1.508       .  S
C2472      C2506   1.511       .  S
C2473      C2522   1.503       .  S
C2474      C2547   1.509       .  S
O2475     Cu2483   2.069   1_556  S
O2475      C2485   1.285       .  A
O2476      C2486   1.284       .  A
O2477      C2487   1.288       .  A
O2478      C2488   1.287       .  A
O2479      C2488   1.247       .  A
O2480     Cu2484   1.913   1_556  S
O2480      C2487   1.248       .  A
O2481      C2486   1.268       .  A
O2482      C2485   1.268       .  A
C2485      C2530   1.503       .  S
C2486      C2507   1.499       .  S
C2487      C2523   1.503       .  S
C2488      C2514   1.501       .  S
O2489      C2499   1.247       .  A
O2490     Cu2497   1.912       .  S
O2490      C2500   1.248       .  A
O2491      C2501   1.268       .  A
O2492      C2502   1.268       .  A
O2493     Cu2498   2.067   1_655  S
O2493      C2502   1.284       .  A
O2494      C2501   1.285       .  A
O2495      C2500   1.289       .  A
O2496      C2499   1.289       .  A
C2499      C2531   1.506       .  S
C2500      C2546   1.507       .  S
C2501      C2539   1.506       .  S
C2502      C2515   1.503       .  S
C2503      C2750   1.499       .  S
C2503      C2508   1.400       .  A
C2504      C2670   1.484       .  S
C2504      C2505   1.407       .  A
C2505      C2506   1.403       .  A
C2505      H2510   1.084       .  S
C2507      C2508   1.401       .  A
C2508      H2509   1.084       .  S
C2511      C2681   1.495       .  S
C2511      C2512   1.422       .  A
C2511      C2516   1.404       .  A
C2512      C2650   1.485       .  S
C2512      C2513   1.402       .  A
C2513      C2514   1.398       .  A
C2513      H2518   1.084       .  S
C2514      C2515   1.450       .  A
C2515      C2516   1.398       .  A
C2516      H2517   1.084       .  S
C2519      C2721   1.483       .  S
C2519      C2524   1.402       .  A
C2520      C2630   1.502       .  S
C2520      C2521   1.406       .  A
C2521      C2522   1.403       .  A
C2521      H2526   1.084       .  S
C2523      C2524   1.398       .  A
C2524      H2525   1.084       .  S
C2527      C2701   1.488       .  S
C2527      C2528   1.421       .  A
C2527      C2532   1.404       .  A
C2528      C2601   1.497       .  S
C2528      C2529   1.403       .  A
C2529      C2530   1.402       .  A
C2529      H2534   1.085       .  S
C2530      C2531   1.453       .  A
C2531      C2532   1.399       .  A
C2532      H2533   1.085       .  S
C2535      C2581   1.484       .  S
C2535      C2540   1.400       .  A
C2536      C2761   1.525       .  S
C2536      C2537   1.416       .  A
C2537      C2538   1.409       .  A
C2537      H2542   1.083       .  S
C2539      C2540   1.391       .  A
C2540      H2541   1.088       .  S
C2543      C2781   1.532       .  S
C2543      C2548   1.413       .  A
C2544      C2561   1.503       .  S
C2544      C2545   1.414       .  A
C2545      C2546   1.399       .  A
C2545      H2550   1.084       .  S
C2547      C2548   1.396       .  A
C2548      H2549   1.076       .  S
C2551      H2552   1.083       .  S
C2551      C2557   1.546       .  S
C2551      C2556   1.550       .  S
C2551      C2555   1.563       .  S
C2553      H2554   1.091       .  S
C2553      C2559   1.571       .  S
C2553      C2558   1.548       .  S
C2553      C2560   1.573       .  S
C2555      C2558   1.378       .  D
C2555      C2621   1.521       .  S
C2556      C2559   1.399       .  D
C2556      C2590   1.539       .  S
C2557      C2560   1.395       .  D
C2557      C2610   1.527       .  S
C2558      C2661   1.524       .  S
C2559      C2570   1.535       .  S
C2560      C2641   1.542       .  S
C2561      C2562   1.416       .  A
C2561      C2566   1.420       .  A
C2562      C2563   1.413       .  A
C2562     Br2574   1.932   1_565  S
C2563      C2564   1.413       .  A
C2563     Br2578   1.928       .  S
C2564      C2567   1.499       .  S
C2564      C2565   1.409       .  A
C2565      C2566   1.409       .  A
C2565     Br2573   1.932       .  S
C2566     Br2577   1.935       .  S
C2567      C2568   1.404       .  A
C2567      C2572   1.405       .  A
C2568      C2569   1.412       .  A
C2568     Br2579   1.935       .  S
C2569      C2570   1.425       .  A
C2569     Br2575   1.909       .  S
C2570      C2571   1.423       .  A
C2571      C2572   1.416       .  A
C2571     Br2580   1.908       .  S
C2572     Br2576   1.933       .  S
C2581      C2582   1.413       .  A
C2581      C2586   1.411       .  A
C2582      C2583   1.408       .  A
C2582     Br2594   1.931       .  S
C2583      C2584   1.408       .  A
C2583     Br2598   1.926       .  S
C2584      C2587   1.484       .  S
C2584      C2585   1.410       .  A
C2585      C2586   1.405       .  A
C2585     Br2593   1.930       .  S
C2586     Br2597   1.931       .  S
C2587      C2588   1.404       .  A
C2587      C2592   1.400       .  A
C2588      C2589   1.414       .  A
C2588     Br2599   1.935       .  S
C2589      C2590   1.434       .  A
C2589     Br2595   1.934       .  S
C2590      C2591   1.413       .  A
C2591      C2592   1.400       .  A
C2591     Br2600   1.905       .  S
C2592     Br2596   1.924       .  S
C2601      C2602   1.419       .  A
C2601      C2606   1.411       .  A
C2602      C2603   1.410       .  A
C2602     Br2614   1.934       .  S
C2603      C2604   1.410       .  A
C2603     Br2618   1.932       .  S
C2604      C2607   1.491       .  S
C2604      C2605   1.408       .  A
C2605      C2606   1.404       .  A
C2605     Br2613   1.926       .  S
C2606     Br2617   1.923       .  S
C2607      C2608   1.404       .  A
C2607      C2612   1.404       .  A
C2608      C2609   1.412       .  A
C2608     Br2619   1.936       .  S
C2609      C2610   1.429       .  A
C2609     Br2615   1.923       .  S
C2610      C2611   1.423       .  A
C2611      C2612   1.409       .  A
C2611     Br2620   1.910       .  S
C2612     Br2616   1.939       .  S
C2621      C2622   1.423       .  A
C2621      C2626   1.423       .  A
C2622      C2623   1.411       .  A
C2622     Br2634   1.914       .  S
C2623      C2624   1.403       .  A
C2623     Br2638   1.936       .  S
C2624      C2627   1.489       .  S
C2624      C2625   1.403       .  A
C2625      C2626   1.410       .  A
C2625     Br2633   1.935       .  S
C2626     Br2637   1.913       .  S
C2627      C2628   1.408       .  A
C2627      C2632   1.408       .  A
C2628      C2629   1.408       .  A
C2628     Br2639   1.933       .  S
C2629      C2630   1.419       .  A
C2629     Br2635   1.934       .  S
C2630      C2631   1.416       .  A
C2631      C2632   1.410       .  A
C2632     Br2636   1.932       .  S
C2641      C2642   1.428       .  A
C2641      C2646   1.430       .  A
C2642      C2643   1.403       .  A
C2642     Br2654   1.938       .  S
C2643      C2644   1.403       .  A
C2643     Br2658   1.935       .  S
C2644      C2647   1.487       .  S
C2644      C2645   1.404       .  A
C2645      C2646   1.412       .  A
C2645     Br2653   1.935       .  S
C2646     Br2657   1.920       .  S
C2647      C2648   1.410       .  A
C2647      C2652   1.411       .  A
C2648      C2649   1.400       .  A
C2648     Br2659   1.934       .  S
C2649      C2650   1.412       .  A
C2649     Br2655   1.937       .  S
C2650      C2651   1.412       .  A
C2651      C2652   1.410       .  A
C2651     Br2660   1.927       .  S
C2652     Br2656   1.927       .  S
C2661      C2662   1.427       .  A
C2661      C2666   1.420       .  A
C2662      C2663   1.409       .  A
C2662     Br2674   1.911       .  S
C2663      C2664   1.401       .  A
C2663     Br2678   1.938       .  S
C2664      C2667   1.482       .  S
C2664      C2665   1.399       .  A
C2665      C2666   1.407       .  A
C2665     Br2673   1.934       .  S
C2666     Br2677   1.903       .  S
C2667      C2668   1.408       .  A
C2667      C2672   1.408       .  A
C2668      C2669   1.406       .  A
C2668     Br2679   1.930       .  S
C2669      C2670   1.410       .  A
C2669     Br2675   1.926       .  S
C2670      C2671   1.412       .  A
C2671      C2672   1.405       .  A
C2671     Br2680   1.933       .  S
C2672     Br2676   1.931       .  S
C2681      C2682   1.418       .  A
C2681      C2686   1.410       .  A
C2682      C2683   1.407       .  A
C2682     Br2694   1.932       .  S
C2683      C2684   1.413       .  A
C2683     Br2698   1.933       .  S
C2684      C2687   1.491       .  S
C2684      C2685   1.411       .  A
C2685      C2686   1.399       .  A
C2685     Br2693   1.932       .  S
C2686     Br2697   1.917       .  S
C2687      C2688   1.407       .  A
C2687      C2692   1.405       .  A
C2688      C2689   1.406       .  A
C2688     Br2699   1.936       .  S
C2689      C2690   1.428       .  A
C2689     Br2695   1.926       .  S
C2690      C2691   1.419       .  A
C2691      C2692   1.403       .  A
C2691     Br2700   1.922       .  S
C2692     Br2696   1.926       .  S
C2701      C2702   1.412       .  A
C2701      C2706   1.415       .  A
C2702      C2703   1.408       .  A
C2702     Br2714   1.926       .  S
C2703      C2704   1.409       .  A
C2703     Br2718   1.930       .  S
C2704      C2707   1.485       .  S
C2704      C2705   1.409       .  A
C2705      C2706   1.403       .  A
C2705     Br2713   1.929       .  S
C2706     Br2717   1.938       .  S
C2707      C2708   1.402       .  A
C2707      C2712   1.404       .  A
C2708      C2709   1.407       .  A
C2708     Br2719   1.938       .  S
C2709      C2710   1.427       .  A
C2709     Br2715   1.922       .  S
C2710      C2711   1.424       .  A
C2711      C2712   1.410       .  A
C2711     Br2720   1.926       .  S
C2712     Br2716   1.929       .  S
C2721      C2722   1.410       .  A
C2721      C2726   1.415       .  A
C2722      C2723   1.405       .  A
C2722     Br2734   1.926       .  S
C2723      C2724   1.408       .  A
C2723     Br2738   1.931       .  S
C2724      C2727   1.477       .  S
C2724      C2725   1.407       .  A
C2725      C2726   1.403       .  A
C2725     Br2733   1.933       .  S
C2726     Br2737   1.935       .  S
C2727      C2728   1.405       .  A
C2727      C2732   1.401       .  A
C2728      C2729   1.407       .  A
C2728     Br2739   1.933       .  S
C2729      C2730   1.421       .  A
C2729     Br2735   1.926       .  S
C2730      C2731   1.421       .  A
C2731      C2732   1.402       .  A
C2731     Br2740   1.922       .  S
C2732     Br2736   1.935       .  S
C2741      C2742   1.422       .  A
C2741      C2746   1.423       .  A
C2742      C2743   1.410       .  A
C2742     Br2754   1.922       .  S
C2743      C2744   1.406       .  A
C2743     Br2758   1.935       .  S
C2744      C2747   1.492       .  S
C2744      C2745   1.406       .  A
C2745      C2746   1.411       .  A
C2745     Br2753   1.935       .  S
C2746     Br2757   1.926       .  S
C2747      C2748   1.409       .  A
C2747      C2752   1.410       .  A
C2748      C2749   1.408       .  A
C2748     Br2759   1.932       .  S
C2749      C2750   1.413       .  A
C2750      C2751   1.417       .  A
C2751      C2752   1.409       .  A
C2751     Br2760   1.933       .  S
C2752     Br2756   1.932       .  S
C2761      C2762   1.428       .  A
C2761      C2766   1.399       .  A
C2762      C2763   1.425       .  A
C2762     Br2774   1.930       .  S
C2763      C2764   1.420       .  A
C2763     Br2778   1.929       .  S
C2764      C2767   1.497       .  S
C2764      C2765   1.407       .  A
C2765      C2766   1.392       .  A
C2765     Br2773   1.920       .  S
C2767      C2768   1.410       .  A
C2767      C2772   1.405       .  A
C2768      C2769   1.406       .  A
C2768     Br2779   1.929       .  S
C2769      C2770   1.419       .  A
C2769     Br2775   1.924       .  S
C2770      C2771   1.430       .  A
C2771      C2772   1.412       .  A
C2771     Br2780   1.920       .  S
C2772     Br2776   1.936       .  S
C2781      C2782   1.427       .  A
C2781      C2786   1.406       .  A
C2782      C2783   1.410       .  A
C2782     Br2794   1.938       .  S
C2783      C2784   1.408       .  A
C2783     Br2798   1.933       .  S
C2784      C2787   1.485       .  S
C2784      C2785   1.408       .  A
C2785      C2786   1.402       .  A
C2785     Br2793   1.926       .  S
C2787      C2788   1.404       .  A
C2787      C2792   1.404       .  A
C2788      C2789   1.406       .  A
C2788     Br2799   1.940       .  S
C2789      C2790   1.427       .  A
C2789     Br2795   1.920       .  S
C2790      C2791   1.425       .  A
C2791      C2792   1.410       .  A
C2791     Br2800   1.924       .  S
C2792     Br2796   1.932       .  S
