geometry optimzed in LAMMPS
_audit_creation_date              2020-11-30 
_audit_creation_method            'lammps2cif' 
_symmetry_space_group_name_H-M    'P1' 
_symmetry_Int_Tables_number       1 
_symmetry_cell_setting            triclinic 
loop_ 
_symmetry_equiv_pos_as_xyz 
  x,y,z 
_cell_length_a                    26.50660993 
_cell_length_b                    35.539549988815224 
_cell_length_c                    32.28110576048025 
_cell_angle_alpha                 90.0002649946532 
_cell_angle_beta                  89.99983940692216 
_cell_angle_gamma                 88.90360854317763 
loop_ 
_atom_site_label 
_atom_site_type_symbol 
_atom_site_fract_x 
_atom_site_fract_y 
_atom_site_fract_z 
_atom_site_charge 
Fe1        Fe  0.25596317  0.31570163  0.48548390     1.65800
Fe2        Fe  0.25963897  0.26875676  0.39534183     1.73200
Fe3        Fe  0.25047378  0.36472082  0.39456934     1.54400
O4          O  0.20098804  0.38918710  0.43755387    -0.82000
O5          O  0.32121515  0.28754736  0.36351062    -0.80300
O6          O  0.19283842  0.35002373  0.49086937    -0.84500
O7          O  0.30198801  0.36098168  0.48980390    -0.79300
O8          O  0.18878545  0.34782029  0.35802394    -0.81100
O9          O  0.30766077  0.24165493  0.43588090    -0.83800
C10         C  0.32300060  0.38406251  0.46571624     0.96900
C11         C  0.18101133  0.38021550  0.47204679     1.04400
O12         O  0.25471977  0.31653704  0.42519003    -1.12800
O13         O  0.19836282  0.24546435  0.42549853    -0.75300
O14         O  0.21033907  0.26999642  0.48799685    -0.78800
O15         O  0.31192130  0.38639224  0.42727241    -0.79400
C16         C  0.19013649  0.24609799  0.46425128     0.95800
O17         O  0.31960514  0.28116312  0.48798975    -0.77400
O18         O  0.21209310  0.28797231  0.35060767    -0.82600
C19         C  0.32260281  0.31572366  0.33944575     0.98400
C20         C  0.18538614  0.31614442  0.33970148     1.04400
O21         O  0.29852728  0.34632596  0.34688112    -0.78200
C22         C  0.32816781  0.24999475  0.46987014     1.02700
C23         C  0.11044003  0.15933756  0.48500668     0.02800
C24         C  0.12478766  0.15293193  0.02686654    -0.13300
C25         C  0.15412296  0.17892076  0.04795595     0.00300
C26         C  0.17015868  0.21072569  0.02712095    -0.11800
C27         C  0.16109737  0.21609440  0.48474070     0.02800
C28         C  0.13046096  0.19042538  0.46356918    -0.11300
H29         H  0.11262372  0.12817025  0.04337419     0.08400
H30         H  0.19448706  0.22975861  0.04367892     0.06000
H31         H  0.12215855  0.19469290  0.43103950     0.05800
C32         C  0.39503298  0.15721279  0.49215204     0.02800
C33         C  0.37419328  0.15015572  0.03198770    -0.13300
C34         C  0.34538577  0.17837749  0.05230894     0.00300
C35         C  0.34053449  0.21390905  0.03322370    -0.11800
C36         C  0.35506231  0.21964122  0.49240145     0.02800
C37         C  0.38267243  0.19136089  0.47190526    -0.11300
H38         H  0.37992878  0.12304893  0.04677652     0.08400
H39         H  0.31878735  0.23627344  0.04799187     0.06000
H40         H  0.39404898  0.19597219  0.44010386     0.05800
Fe41       Fe  0.00597125  0.06570284  0.48548887     1.65800
Fe42       Fe  0.50961717  0.01875428  0.39535061     1.73200
Fe43       Fe  0.50050539  0.11472059  0.39457018     1.54400
O44         O  0.45102707  0.13920360  0.43755585    -0.82000
O45         O  0.07120521  0.03752200  0.36351332    -0.80300
O46         O  0.44286793  0.10004640  0.49087637    -0.84500
O47         O  0.05202252  0.11096674  0.48980104    -0.79300
O48         O  0.43881118  0.09783910  0.35802361    -0.81100
O49         O  0.05762441  0.49163848  0.43588714    -0.83800
C50         C  0.07304205  0.13404177  0.46571094     0.96900
C51         C  0.43104958  0.13023897  0.47205179     1.04400
O52         O  0.50472591  0.06653708  0.42519500    -1.12800
O53         O  0.44832572  0.99548391  0.42551051    -0.75300
O54         O  0.46031772  0.02001335  0.48800758    -0.78800
O55         O  0.06196107  0.13637436  0.42726875    -0.79400
C56         C  0.44009933  0.99612121  0.46426337     0.95800
O57         O  0.06959359  0.03114378  0.48799404    -0.77400
O58         O  0.46208445  0.03798367  0.35062013    -0.82600
C59         C  0.07262113  0.06570023  0.33945168     0.98400
C60         C  0.43539715  0.06616246  0.33970625     1.04400
O61         O  0.04855868  0.09630948  0.34688435    -0.78200
C62         C  0.07814057  0.99997374  0.46987346     1.02700
C63         C  0.36039078  0.40936521  0.48501735     0.02800
C64         C  0.38040920  0.44045545  0.46358184    -0.13300
C65         C  0.41104415  0.46612564  0.48475428     0.00300
C66         C  0.42010164  0.46075811  0.02713543    -0.11800
C67         C  0.40407993  0.42894764  0.04796839     0.02800
C68         C  0.37474396  0.40295788  0.02687721    -0.11300
H69         H  0.37211033  0.44472155  0.43105102     0.08400
H70         H  0.44442652  0.47979383  0.04369388     0.06000
H71         H  0.36258814  0.37819301  0.04338148     0.05800
C72         C  0.14499037  0.40718425  0.49214596     0.02800
C73         C  0.13262815  0.44133202  0.47189945    -0.13300
C74         C  0.10502991  0.46961541  0.49239943     0.00300
C75         C  0.09051215  0.46388542  0.03322356    -0.11800
C76         C  0.09536201  0.42835334  0.05230816     0.02800
C77         C  0.12415858  0.40012830  0.03198379    -0.11300
H78         H  0.14399944  0.44594281  0.44009532     0.08400
H79         H  0.06877494  0.48625245  0.04799419     0.06000
H80         H  0.12989530  0.37302189  0.04677297     0.05800
Fe81       Fe  0.24262022  0.17256322  0.23548434     1.65800
Fe82       Fe  0.23894490  0.21950799  0.14534232     1.73200
Fe83       Fe  0.24811106  0.12354388  0.14456921     1.54400
O84         O  0.29759694  0.09907795  0.18755345    -0.82000
O85         O  0.17737002  0.20071713  0.11350958    -0.80300
O86         O  0.30574433  0.13824057  0.24087020    -0.84500
O87         O  0.19659454  0.12728359  0.23980376    -0.79300
O88         O  0.30979943  0.14044491  0.10802379    -0.81100
O89         O  0.19092169  0.24660949  0.18588073    -0.83800
C90         C  0.17558312  0.10420209  0.21571604     0.96900
C91         C  0.31757233  0.10804915  0.22204704     1.04400
O92         O  0.24386417  0.17172773  0.17519032    -1.12800
O93         O  0.30022001  0.24280086  0.17549990    -0.75300
O94         O  0.28824526  0.21826791  0.23799784    -0.78800
O95         O  0.18666354  0.10187189  0.17727232    -0.79400
C96         C  0.30844754  0.24216645  0.21425241     0.95800
O97         O  0.17897872  0.20710218  0.23799030    -0.77400
O98         O  0.28649208  0.20029299  0.10060879    -0.82600
C99         C  0.17598283  0.17254051  0.08944487     0.98400
C100        C  0.31319893  0.17212099  0.08970200     1.04400
O101        O  0.20005770  0.14193811  0.09688091    -0.78200
C102        C  0.17041522  0.23827003  0.21987033     1.02700
C103        C  0.38814550  0.32892610  0.23500750     0.02800
C104        C  0.37379839  0.33533179  0.27686760    -0.13300
C105        C  0.34446348  0.30934287  0.29795715     0.00300
C106        C  0.32842783  0.27753771  0.27712231    -0.11800
C107        C  0.33748808  0.27216934  0.23474175     0.02800
C108        C  0.36812425  0.29783823  0.21356987    -0.11300
H109        H  0.38596200  0.36009332  0.29337499     0.08400
H110        H  0.30410027  0.25850495  0.29368030     0.06000
H111        H  0.37642578  0.29357089  0.18104052     0.05800
C112        C  0.10355173  0.33105264  0.24215177     0.02800
C113        C  0.11591142  0.29690413  0.22190565    -0.13300
C114        C  0.14352074  0.26862376  0.24240153     0.00300
C115        C  0.15804888  0.27435622  0.28322378    -0.11800
C116        C  0.15319889  0.30988823  0.30230856     0.02800
C117        C  0.12439208  0.33811031  0.28198731    -0.11300
H118        H  0.10453402  0.29229223  0.19010273     0.08400
H119        H  0.17979457  0.25199226  0.29799161     0.06000
H120        H  0.11865751  0.36521679  0.29677551     0.05800
Fe121      Fe  0.49261259  0.42256181  0.23548887     1.65800
Fe122      Fe  0.48896397  0.46950967  0.14535071     1.73200
Fe123      Fe  0.49807897  0.37354355  0.14457020     1.54400
O124        O  0.04755774  0.34906122  0.18755564    -0.82000
O125        O  0.42737597  0.45074053  0.11351477    -0.80300
O126        O  0.05571661  0.38821895  0.24087600    -0.84500
O127        O  0.44656185  0.37729767  0.23980133    -0.79300
O128        O  0.05977273  0.39042581  0.10802374    -0.81100
O129        O  0.44095662  0.49662525  0.18588776    -0.83800
C130        C  0.42554278  0.35422210  0.21571136     0.96900
C131        C  0.06753518  0.35802626  0.22205156     1.04400
O132        O  0.49385717  0.42172718  0.17519506    -1.12800
O133        O  0.05025548  0.49278138  0.17550949    -0.75300
O134        O  0.03826562  0.46825143  0.23800642    -0.78800
O135        O  0.43662367  0.35188925  0.17726910    -0.79400
C136        C  0.05848326  0.49214373  0.21426208     0.95800
O137        O  0.42898985  0.45712047  0.23799521    -0.77400
O138        O  0.03649630  0.45028045  0.10061937    -0.82600
C139        C  0.42596221  0.42256284  0.08945205     0.98400
C140        C  0.06318484  0.42210213  0.08970570     1.04400
O141        O  0.45002575  0.39195401  0.09688420    -0.78200
C142        C  0.42044140  0.48829007  0.21987452     1.02700
C143        C  0.13819305  0.07889910  0.23501697     0.02800
C144        C  0.11817383  0.04780937  0.21358076    -0.13300
C145        C  0.08753907  0.02213895  0.23475298     0.00300
C146        C  0.07848262  0.02750559  0.27713458    -0.11800
C147        C  0.09450452  0.05931576  0.29796816     0.02800
C148        C  0.12384033  0.08530582  0.27687734    -0.11300
H149        H  0.12647195  0.04354379  0.18104955     0.08400
H150        H  0.05415828  0.00847002  0.29369260     0.06000
H151        H  0.13599634  0.11007045  0.29338217     0.05800
C152        C  0.35359245  0.08108019  0.24214648     0.03200
C153        C  0.37442396  0.08813651  0.28198432    -0.13300
C154        C  0.40321943  0.05991115  0.30230906     0.00300
C155        C  0.40806792  0.02437875  0.28322479    -0.11800
C156        C  0.39355134  0.01864847  0.24240050     0.02800
C157        C  0.36595404  0.04693197  0.22190021    -0.11300
H158        H  0.36868797  0.11524283  0.29677296     0.08400
H159        H  0.42980461  0.00201082  0.29799628     0.06000
H160        H  0.35458332  0.04232105  0.19009621     0.05800
Fe161      Fe  0.25596309  0.31570162  0.98548396     1.65800
Fe162      Fe  0.25963897  0.26875671  0.89534189     1.73200
Fe163      Fe  0.25047370  0.36472077  0.89456929     1.54400
O164        O  0.20098782  0.38918700  0.93755377    -0.82000
O165        O  0.32121512  0.28754729  0.86351063    -0.80300
O166        O  0.19283827  0.35002372  0.99086939    -0.84500
O167        O  0.30198798  0.36098170  0.98980388    -0.79300
O168        O  0.18878546  0.34782036  0.85802378    -0.81100
O169        O  0.30766066  0.24165484  0.93588100    -0.83800
C170        C  0.32300052  0.38406253  0.96571618     0.96900
C171        C  0.18101121  0.38021547  0.97204677     1.04400
O172        O  0.25471962  0.31653699  0.92519010    -1.12800
O173        O  0.19836294  0.24546420  0.92549853    -0.75300
O174        O  0.21033914  0.26999629  0.98799685    -0.78800
O175        O  0.31192120  0.38639221  0.92727234    -0.79400
C176        C  0.19013660  0.24609787  0.96425130     0.95800
O177        O  0.31960510  0.28116316  0.98798971    -0.77400
O178        O  0.21209303  0.28797234  0.85060772    -0.82600
C179        C  0.32260286  0.31572359  0.83944578     0.98400
C180        C  0.18538607  0.31614447  0.83970143     1.04400
O181        O  0.29852739  0.34632593  0.84688117    -0.78200
C182        C  0.32816778  0.24999475  0.96987016     1.02700
C183        C  0.11044004  0.15933749  0.98500669     0.02800
C184        C  0.12478747  0.15293170  0.52686673    -0.13300
C185        C  0.15412302  0.17892079  0.54795594     0.00300
C186        C  0.17015880  0.21072559  0.52712093    -0.11800
C187        C  0.16109729  0.21609437  0.98474067     0.02800
C188        C  0.13046091  0.19042539  0.96356913    -0.11300
H189        H  0.11262412  0.12817150  0.54337347     0.08400
H190        H  0.19448742  0.22975870  0.54367903     0.06000
H191        H  0.12215855  0.19469283  0.93103952     0.05800
C192        C  0.39503311  0.15721290  0.99215205     0.02800
C193        C  0.37419332  0.15015566  0.53198771    -0.13300
C194        C  0.34538587  0.17837747  0.55230901     0.00300
C195        C  0.34053447  0.21390899  0.53322367    -0.11800
C196        C  0.35506236  0.21964129  0.99240145     0.02800
C197        C  0.38267245  0.19136093  0.97190554    -0.11300
H198        H  0.37992878  0.12304893  0.54677647     0.08400
H199        H  0.31878727  0.23627333  0.54799181     0.06000
H200        H  0.39404953  0.19597241  0.94010285     0.05800
Fe201      Fe  0.00597117  0.06570293  0.98548886     1.65800
Fe202      Fe  0.50961715  0.01875434  0.89535070     1.73200
Fe203      Fe  0.50050539  0.11472061  0.89457011     1.54400
O204        O  0.45102701  0.13920362  0.93755576    -0.82000
O205        O  0.07120519  0.03752193  0.86351332    -0.80300
O206        O  0.44286794  0.10004647  0.99087637    -0.84500
O207        O  0.05202264  0.11096668  0.98980098    -0.79300
O208        O  0.43881116  0.09783913  0.85802355    -0.81100
O209        O  0.05762430  0.49163832  0.93588720    -0.83800
C210        C  0.07304221  0.13404171  0.96571085     0.96900
C211        C  0.43104962  0.13023902  0.97205184     1.04400
O212        O  0.50472584  0.06653717  0.92519501    -1.12800
O213        O  0.44832572  0.99548393  0.92551047    -0.75300
O214        O  0.46031780  0.02001339  0.98800749    -0.78800
O215        O  0.06196126  0.13637430  0.92726869    -0.79400
C216        C  0.44009934  0.99612124  0.96426330     0.95800
O217        O  0.06959345  0.03114386  0.98799407    -0.77400
O218        O  0.46208438  0.03798368  0.85062026    -0.82600
C219        C  0.07262111  0.06570011  0.83945162     0.98400
C220        C  0.43539711  0.06616242  0.83970629     1.04400
O221        O  0.04855861  0.09630936  0.84688424    -0.78200
C222        C  0.07814056  0.99997385  0.96987348     1.02700
C223        C  0.36039068  0.40936526  0.98501728     0.02800
C224        C  0.38040930  0.44045537  0.96358173    -0.13300
C225        C  0.41104427  0.46612557  0.98475418     0.00300
C226        C  0.42010177  0.46075829  0.52713563    -0.11800
C227        C  0.40407986  0.42894767  0.54796846     0.02800
C228        C  0.37474408  0.40295784  0.52687726    -0.11300
H229        H  0.37211046  0.44472149  0.93105066     0.08400
H230        H  0.44442591  0.47979321  0.54369346     0.06000
H231        H  0.36258835  0.37819295  0.54338147     0.05800
C232        C  0.14499045  0.40718427  0.99214603     0.02800
C233        C  0.13262823  0.44133202  0.97189951    -0.13300
C234        C  0.10502998  0.46961536  0.99239941     0.00300
C235        C  0.09051207  0.46388526  0.53322346    -0.11800
C236        C  0.09536203  0.42835330  0.55230816     0.02800
C237        C  0.12415866  0.40012814  0.53198380    -0.11300
H238        H  0.14399954  0.44594274  0.94009520     0.08400
H239        H  0.06877428  0.48625270  0.54799441     0.06000
H240        H  0.12989542  0.37302239  0.54677266     0.05800
Fe241      Fe  0.24262025  0.17256317  0.73548434     1.65800
Fe242      Fe  0.23894485  0.21950802  0.64534238     1.73200
Fe243      Fe  0.24811098  0.12354393  0.64456920     1.54400
O244        O  0.29759674  0.09907788  0.68755355    -0.82000
O245        O  0.17737001  0.20071714  0.61350959    -0.80300
O246        O  0.30574448  0.13824064  0.74087010    -0.84500
O247        O  0.19659467  0.12728351  0.73980374    -0.79300
O248        O  0.30979926  0.14044490  0.60802374    -0.81100
O249        O  0.19092170  0.24660943  0.68588077    -0.83800
C250        C  0.17558322  0.10420209  0.71571598     0.96900
C251        C  0.31757229  0.10804912  0.72204703     1.04400
O252        O  0.24386403  0.17172775  0.67519034    -1.12800
O253        O  0.30021982  0.24280101  0.67549996    -0.75300
O254        O  0.28824535  0.21826781  0.73799779    -0.78800
O255        O  0.18666351  0.10187201  0.67727223    -0.79400
C256        C  0.30844754  0.24216643  0.71425243     0.95800
O257        O  0.17897882  0.20710215  0.73799040    -0.77400
O258        O  0.28649215  0.20029305  0.60060888    -0.82600
C259        C  0.17598282  0.17254048  0.58944488     0.98400
C260        C  0.31319894  0.17212099  0.58970204     1.04400
O261        O  0.20005778  0.14193817  0.59688085    -0.78200
C262        C  0.17041531  0.23827004  0.71987033     1.02700
C263        C  0.38814562  0.32892609  0.73500760     0.02800
C264        C  0.37379862  0.33533175  0.77686773    -0.13300
C265        C  0.34446361  0.30934278  0.79795720     0.00300
C266        C  0.32842804  0.27753766  0.77712228    -0.11800
C267        C  0.33748824  0.27216927  0.73474178     0.02800
C268        C  0.36812434  0.29783826  0.71356985    -0.11300
H269        H  0.38596216  0.36009300  0.79337504     0.08400
H270        H  0.30410009  0.25850468  0.79368042     0.06000
H271        H  0.37642571  0.29357108  0.68104080     0.05800
C272        C  0.10355180  0.33105270  0.74215176     0.02800
C273        C  0.11591150  0.29690419  0.72190536    -0.13300
C274        C  0.14352087  0.26862375  0.74240155     0.00300
C275        C  0.15804857  0.27435643  0.78322359    -0.11800
C276        C  0.15319884  0.30988819  0.80230858     0.02800
C277        C  0.12439211  0.33811023  0.78198717    -0.11300
H278        H  0.10453458  0.29229245  0.69010342     0.08400
H279        H  0.17979555  0.25199115  0.79799243     0.06000
H280        H  0.11865755  0.36521742  0.79677576     0.05800
Fe281      Fe  0.49261267  0.42256182  0.73548884     1.65800
Fe282      Fe  0.48896411  0.46950962  0.64535068     1.73200
Fe283      Fe  0.49807894  0.37354350  0.64457021     1.54400
O284        O  0.04755775  0.34906125  0.68755566    -0.82000
O285        O  0.42737618  0.45074055  0.61351471    -0.80300
O286        O  0.05571657  0.38821899  0.74087598    -0.84500
O287        O  0.44656213  0.37729756  0.73980145    -0.79300
O288        O  0.05977270  0.39042567  0.60802367    -0.81100
O289        O  0.44095678  0.49662525  0.68588776    -0.83800
C290        C  0.42554292  0.35422207  0.71571144     0.96900
C291        C  0.06753521  0.35802632  0.72205151     1.04400
O292        O  0.49385726  0.42172713  0.67519504    -1.12800
O293        O  0.05025526  0.49278148  0.67550940    -0.75300
O294        O  0.03826564  0.46825140  0.73800630    -0.78800
O295        O  0.43662367  0.35188931  0.67726918    -0.79400
C296        C  0.05848315  0.49214376  0.71426197     0.95800
O297        O  0.42898987  0.45712051  0.73799523    -0.77400
O298        O  0.03649646  0.45028038  0.60061948    -0.82600
C299        C  0.42596225  0.42256284  0.58945205     0.98400
C300        C  0.06318493  0.42210205  0.58970573     1.04400
O301        O  0.45002559  0.39195393  0.59688423    -0.78200
C302        C  0.42044149  0.48829012  0.71987448     1.02700
C303        C  0.13819323  0.07889908  0.73501695     0.02800
C304        C  0.11817401  0.04780939  0.71358055    -0.13300
C305        C  0.08753920  0.02213901  0.73475290     0.00300
C306        C  0.07848274  0.02750546  0.77713456    -0.11800
C307        C  0.09450470  0.05931567  0.79796815     0.02800
C308        C  0.12384050  0.08530572  0.77687730    -0.11300
H309        H  0.12647193  0.04354398  0.68105012     0.08400
H310        H  0.05415883  0.00847025  0.79369228     0.06000
H311        H  0.13599651  0.11007051  0.79338221     0.05800
C312        C  0.35359240  0.08108016  0.74214653     0.03200
C313        C  0.37442396  0.08813641  0.78198433    -0.13300
C314        C  0.40321939  0.05991110  0.80230910     0.00300
C315        C  0.40806797  0.02437872  0.78322475    -0.11800
C316        C  0.39355128  0.01864846  0.74240049     0.02800
C317        C  0.36595409  0.04693201  0.72190021    -0.11300
H318        H  0.36868803  0.11524301  0.79677311     0.08400
H319        H  0.42980482  0.00201081  0.79799621     0.06000
H320        H  0.35458344  0.04232113  0.69009601     0.05800
Fe321      Fe  0.25596308  0.81570165  0.48548390     1.65800
Fe322      Fe  0.25963899  0.76875677  0.39534184     1.73200
Fe323      Fe  0.25047374  0.86472082  0.39456933     1.54400
O324        O  0.20098790  0.88918703  0.43755386    -0.82000
O325        O  0.32121516  0.78754741  0.36351063    -0.80300
O326        O  0.19283824  0.85002367  0.49086937    -0.84500
O327        O  0.30198796  0.86098175  0.48980391    -0.79300
O328        O  0.18878541  0.84782033  0.35802390    -0.81100
O329        O  0.30766075  0.74165493  0.43588094    -0.83800
C330        C  0.32300064  0.88406251  0.46571622     0.96900
C331        C  0.18101120  0.88021544  0.47204680     1.04400
O332        O  0.25471964  0.81653704  0.42519004    -1.12800
O333        O  0.19836295  0.74546428  0.42549854    -0.75300
O334        O  0.21033914  0.76999636  0.48799686    -0.78800
O335        O  0.31192137  0.88639219  0.42727238    -0.79400
C336        C  0.19013660  0.74609793  0.46425128     0.95800
O337        O  0.31960509  0.78116320  0.48798972    -0.77400
O338        O  0.21209303  0.78797233  0.35060771    -0.82600
C339        C  0.32260287  0.81572369  0.33944575     0.98400
C340        C  0.18538606  0.81614440  0.33970150     1.04400
O341        O  0.29852734  0.84632601  0.34688110    -0.78200
C342        C  0.32816783  0.74999480  0.46987012     1.02700
C343        C  0.11044015  0.65933749  0.48500668     0.02800
C344        C  0.12478756  0.65293190  0.02686657    -0.13300
C345        C  0.15412304  0.67892071  0.04795594     0.00300
C346        C  0.17015875  0.71072563  0.02712094    -0.11800
C347        C  0.16109736  0.71609441  0.48474069     0.02800
C348        C  0.13046107  0.69042535  0.46356918    -0.11300
H349        H  0.11262366  0.62817050  0.04337404     0.08400
H350        H  0.19448722  0.72975866  0.04367900     0.06000
H351        H  0.12215864  0.69469286  0.43103922     0.05800
C352        C  0.39503303  0.65721283  0.49215207     0.02800
C353        C  0.37419333  0.65015569  0.03198777    -0.13300
C354        C  0.34538582  0.67837749  0.05230898     0.00300
C355        C  0.34053440  0.71390909  0.03322376    -0.11800
C356        C  0.35506246  0.71964133  0.49240148     0.02800
C357        C  0.38267257  0.69136094  0.47190528    -0.11300
H358        H  0.37992881  0.62304914  0.04677644     0.08400
H359        H  0.31878750  0.73627312  0.04799163     0.06000
H360        H  0.39404910  0.69597222  0.44010394     0.05800
Fe361      Fe  0.00597118  0.56570293  0.48548888     1.65800
Fe362      Fe  0.50961719  0.51875435  0.39535063     1.73200
Fe363      Fe  0.50050539  0.61472058  0.39457017     1.54400
O364        O  0.45102704  0.63920359  0.43755583    -0.82000
O365        O  0.07120523  0.53752201  0.36351334    -0.80300
O366        O  0.44286789  0.60004639  0.49087637    -0.84500
O367        O  0.05202262  0.61096675  0.48980105    -0.79300
O368        O  0.43881112  0.59783912  0.35802363    -0.81100
O369        O  0.05762433  0.99163835  0.43588718    -0.83800
C370        C  0.07304223  0.63404173  0.46571091     0.96900
C371        C  0.43104960  0.63023900  0.47205180     1.04400
O372        O  0.50472585  0.56653714  0.42519502    -1.12800
O373        O  0.44832574  0.49548387  0.42551049    -0.75300
O374        O  0.46031789  0.52001333  0.48800754    -0.78800
O375        O  0.06196124  0.63637431  0.42726874    -0.79400
C376        C  0.44009939  0.49612120  0.46426336     0.95800
O377        O  0.06959347  0.53114387  0.48799407    -0.77400
O378        O  0.46208461  0.53798378  0.35062007    -0.82600
C379        C  0.07262111  0.56570020  0.33945165     0.98400
C380        C  0.43539720  0.56616247  0.33970624     1.04400
O381        O  0.04855861  0.59630941  0.34688430    -0.78200
C382        C  0.07814055  0.49997385  0.46987346     1.02700
C383        C  0.36039076  0.90936523  0.48501735     0.02800
C384        C  0.38040931  0.94045542  0.46358182    -0.13300
C385        C  0.41104421  0.96612561  0.48475426     0.00300
C386        C  0.42010173  0.96075813  0.02713542    -0.11800
C387        C  0.40407990  0.92894771  0.04796841     0.02800
C388        C  0.37474398  0.90295782  0.02687724    -0.11300
H389        H  0.37211045  0.94472151  0.43105080     0.08400
H390        H  0.44442670  0.97979370  0.04369377     0.06000
H391        H  0.36258843  0.87819335  0.04338124     0.05800
C392        C  0.14499037  0.90718424  0.49214599     0.02800
C393        C  0.13262827  0.94133200  0.47189948    -0.13300
C394        C  0.10502999  0.96961537  0.49239942     0.00300
C395        C  0.09051239  0.96388527  0.03322348    -0.11800
C396        C  0.09536211  0.92835336  0.05230821     0.02800
C397        C  0.12415869  0.90012827  0.03198379    -0.11300
H398        H  0.14399960  0.94594277  0.44009530     0.08400
H399        H  0.06877430  0.98625321  0.04799479     0.06000
H400        H  0.12989549  0.87302192  0.04677299     0.05800
Fe401      Fe  0.24262024  0.67256321  0.23548433     1.65800
Fe402      Fe  0.23894483  0.71950807  0.14534230     1.73200
Fe403      Fe  0.24811098  0.62354388  0.14456922     1.54400
O404        O  0.29759679  0.59907794  0.18755352    -0.82000
O405        O  0.17737003  0.70071711  0.11350955    -0.80300
O406        O  0.30574444  0.63824068  0.24087012    -0.84500
O407        O  0.19659468  0.62728354  0.23980381    -0.79300
O408        O  0.30979929  0.64044487  0.10802374    -0.81100
O409        O  0.19092174  0.74660950  0.18588075    -0.83800
C410        C  0.17558324  0.60420208  0.21571607     0.96900
C411        C  0.31757233  0.60804919  0.22204705     1.04400
O412        O  0.24386403  0.67172777  0.17519030    -1.12800
O413        O  0.30021979  0.74280106  0.17549993    -0.75300
O414        O  0.28824533  0.71826788  0.23799780    -0.78800
O415        O  0.18666352  0.60187199  0.17727231    -0.79400
C416        C  0.30844752  0.74216650  0.21425240     0.95800
O417        O  0.17897879  0.70710214  0.23799031    -0.77400
O418        O  0.28649211  0.70029302  0.10060884    -0.82600
C419        C  0.17598285  0.67254046  0.08944486     0.98400
C420        C  0.31319889  0.67212098  0.08970202     1.04400
O421        O  0.20005773  0.64193808  0.09688090    -0.78200
C422        C  0.17041534  0.73827002  0.21987035     1.02700
C423        C  0.38814566  0.82892608  0.23500753     0.02800
C424        C  0.37379858  0.83533176  0.27686763    -0.13300
C425        C  0.34446364  0.80934283  0.29795718     0.00300
C426        C  0.32842808  0.77753773  0.27712227    -0.11800
C427        C  0.33748820  0.77216932  0.23474175     0.02800
C428        C  0.36812432  0.79783828  0.21356985    -0.11300
H429        H  0.38596220  0.86009326  0.29337502     0.08400
H430        H  0.30410004  0.75850466  0.29368052     0.06000
H431        H  0.37642576  0.79357104  0.18104048     0.05800
C432        C  0.10355184  0.83105265  0.24215173     0.02800
C433        C  0.11591157  0.79690411  0.22190561    -0.13300
C434        C  0.14352084  0.76862373  0.24240155     0.00300
C435        C  0.15804874  0.77435621  0.28322379    -0.11800
C436        C  0.15319878  0.80988820  0.30230862     0.02800
C437        C  0.12439218  0.83811018  0.28198719    -0.11300
H438        H  0.10453420  0.79229221  0.19010267     0.08400
H439        H  0.17979473  0.75199192  0.29799192     0.06000
H440        H  0.11865754  0.86521744  0.29677576     0.05800
Fe441      Fe  0.49261266  0.92256180  0.23548887     1.65800
Fe442      Fe  0.48896410  0.96950963  0.14535072     1.73200
Fe443      Fe  0.49807895  0.87354351  0.14457018     1.54400
O444        O  0.04755772  0.84906114  0.18755565    -0.82000
O445        O  0.42737612  0.95074053  0.11351478    -0.80300
O446        O  0.05571649  0.88821886  0.24087603    -0.84500
O447        O  0.44656204  0.87729762  0.23980133    -0.79300
O448        O  0.05977273  0.89042575  0.10802370    -0.81100
O449        O  0.44095680  0.99662525  0.18588778    -0.83800
C450        C  0.42554294  0.85422206  0.21571139     0.96900
C451        C  0.06753518  0.85802621  0.22205155     1.04400
O452        O  0.49385729  0.92172714  0.17519507    -1.12800
O453        O  0.05025528  0.99278138  0.17550950    -0.75300
O454        O  0.03826567  0.96825133  0.23800644    -0.78800
O455        O  0.43662375  0.85188920  0.17726911    -0.79400
C456        C  0.05848316  0.99214370  0.21426209     0.95800
O457        O  0.42898987  0.95712048  0.23799521    -0.77400
O458        O  0.03649638  0.95028043  0.10061941    -0.82600
C459        C  0.42596224  0.92256285  0.08945205     0.98400
C460        C  0.06318493  0.92210208  0.08970572     1.04400
O461        O  0.45002560  0.89195395  0.09688420    -0.78200
C462        C  0.42044150  0.98829010  0.21987451     1.02700
C463        C  0.13819323  0.57889904  0.23501698     0.02800
C464        C  0.11817403  0.54780933  0.21358076    -0.13300
C465        C  0.08753926  0.52213891  0.23475299     0.00300
C466        C  0.07848281  0.52750554  0.27713459    -0.11800
C467        C  0.09450462  0.55931572  0.29796816     0.02800
C468        C  0.12384048  0.58530582  0.27687737    -0.11300
H469        H  0.12647213  0.54354376  0.18104957     0.08400
H470        H  0.05415846  0.50846997  0.29369260     0.06000
H471        H  0.13599632  0.61007026  0.29338203     0.05800
C472        C  0.35359243  0.58108021  0.24214650     0.03200
C473        C  0.37442398  0.58813647  0.28198434    -0.13300
C474        C  0.40321941  0.55991115  0.30230906     0.00300
C475        C  0.40806801  0.52437864  0.28322486    -0.11800
C476        C  0.39355125  0.51864845  0.24240050     0.02800
C477        C  0.36595414  0.54693202  0.22190027    -0.11300
H478        H  0.36868802  0.61524293  0.29677305     0.08400
H479        H  0.42980432  0.50201118  0.29799600     0.06000
H480        H  0.35458339  0.54232112  0.19009584     0.05800
Fe481      Fe  0.25596316  0.81570166  0.98548396     1.65800
Fe482      Fe  0.25963906  0.76875668  0.89534189     1.73200
Fe483      Fe  0.25047377  0.86472077  0.89456931     1.54400
O484        O  0.20098800  0.88918711  0.93755381    -0.82000
O485        O  0.32121519  0.78754734  0.86351066    -0.80300
O486        O  0.19283838  0.85002377  0.99086934    -0.84500
O487        O  0.30198794  0.86098178  0.98980390    -0.79300
O488        O  0.18878544  0.84782032  0.85802385    -0.81100
O489        O  0.30766075  0.74165480  0.93588100    -0.83800
C490        C  0.32300056  0.88406254  0.96571618     0.96900
C491        C  0.18101130  0.88021551  0.97204676     1.04400
O492        O  0.25471977  0.81653699  0.92519010    -1.12800
O493        O  0.19836290  0.74546420  0.92549853    -0.75300
O494        O  0.21033909  0.76999635  0.98799683    -0.78800
O495        O  0.31192133  0.88639214  0.92727232    -0.79400
C496        C  0.19013653  0.74609791  0.96425130     0.95800
O497        O  0.31960518  0.78116317  0.98798970    -0.77400
O498        O  0.21209317  0.78797234  0.85060767    -0.82600
C499        C  0.32260276  0.81572358  0.83944576     0.98400
C500        C  0.18538616  0.81614446  0.83970142     1.04400
O501        O  0.29852731  0.84632594  0.84688115    -0.78200
C502        C  0.32816782  0.74999473  0.96987019     1.02700
C503        C  0.11043995  0.65933756  0.98500670     0.02800
C504        C  0.12478759  0.65293191  0.52686664    -0.13300
C505        C  0.15412298  0.67892081  0.54795599     0.00300
C506        C  0.17015865  0.71072561  0.52712089    -0.11800
C507        C  0.16109733  0.71609437  0.98474070     0.02800
C508        C  0.13046099  0.69042536  0.96356913    -0.11300
H509        H  0.11262370  0.62817064  0.54337411     0.08400
H510        H  0.19448762  0.72975896  0.54367921     0.06000
H511        H  0.12215872  0.69469279  0.93103953     0.05800
C512        C  0.39503301  0.65721286  0.99215202     0.02800
C513        C  0.37419327  0.65015556  0.53198772    -0.13300
C514        C  0.34538580  0.67837749  0.55230896     0.00300
C515        C  0.34053461  0.71390895  0.53322361    -0.11800
C516        C  0.35506236  0.71964126  0.99240146     0.02800
C517        C  0.38267232  0.69136087  0.97190554    -0.11300
H518        H  0.37992858  0.62304936  0.54677623     0.08400
H519        H  0.31878700  0.73627370  0.54799204     0.06000
H520        H  0.39404934  0.69597233  0.94010275     0.05800
Fe521      Fe  0.00597123  0.56570291  0.98548885     1.65800
Fe522      Fe  0.50961715  0.51875432  0.89535070     1.73200
Fe523      Fe  0.50050538  0.61472065  0.89457012     1.54400
O524        O  0.45102706  0.63920372  0.93755580    -0.82000
O525        O  0.07120515  0.53752193  0.86351331    -0.80300
O526        O  0.44286792  0.60004649  0.99087632    -0.84500
O527        O  0.05202244  0.61096682  0.98980102    -0.79300
O528        O  0.43881117  0.59783914  0.85802358    -0.81100
O529        O  0.05762443  0.99163849  0.93588715    -0.83800
C530        C  0.07304204  0.63404182  0.96571087     0.96900
C531        C  0.43104959  0.63023904  0.97205183     1.04400
O532        O  0.50472589  0.56653718  0.92519501    -1.12800
O533        O  0.44832574  0.49548388  0.92551048    -0.75300
O534        O  0.46031767  0.52001340  0.98800750    -0.78800
O535        O  0.06196122  0.63637433  0.92726868    -0.79400
C536        C  0.44009932  0.49612119  0.96426329     0.95800
O537        O  0.06959358  0.53114381  0.98799397    -0.77400
O538        O  0.46208442  0.53798369  0.85062026    -0.82600
C539        C  0.07262112  0.56570011  0.83945163     0.98400
C540        C  0.43539715  0.56616247  0.83970628     1.04400
O541        O  0.04855879  0.59630944  0.84688429    -0.78200
C542        C  0.07814052  0.49997374  0.96987349     1.02700
C543        C  0.36039073  0.90936527  0.98501727     0.02800
C544        C  0.38040916  0.94045548  0.96358172    -0.13300
C545        C  0.41104422  0.96612565  0.98475420     0.00300
C546        C  0.42010172  0.96075827  0.52713562    -0.11800
C547        C  0.40407987  0.92894763  0.54796845     0.02800
C548        C  0.37474399  0.90295798  0.52687723    -0.11300
H549        H  0.37211030  0.94472160  0.93105099     0.08400
H550        H  0.44442587  0.97979334  0.54369358     0.06000
H551        H  0.36258794  0.87819266  0.54338176     0.05800
C552        C  0.14499039  0.90718426  0.99214599     0.02800
C553        C  0.13262808  0.94133198  0.97189946    -0.13300
C554        C  0.10502995  0.96961542  0.99239943     0.00300
C555        C  0.09051219  0.96388527  0.53322346    -0.11800
C556        C  0.09536195  0.92835333  0.55230813     0.02800
C557        C  0.12415853  0.90012810  0.53198381    -0.11300
H558        H  0.14399929  0.94594271  0.94009514     0.08400
H559        H  0.06877434  0.98625287  0.54799449     0.06000
H560        H  0.12989509  0.87302248  0.54677256     0.05800
Fe561      Fe  0.24262022  0.67256314  0.73548433     1.65800
Fe562      Fe  0.23894497  0.71950802  0.64534239     1.73200
Fe563      Fe  0.24811108  0.62354392  0.64456920     1.54400
O564        O  0.29759683  0.59907784  0.68755353    -0.82000
O565        O  0.17737016  0.70071714  0.61350960    -0.80300
O566        O  0.30574440  0.63824058  0.74087014    -0.84500
O567        O  0.19659457  0.62728349  0.73980373    -0.79300
O568        O  0.30979941  0.64044492  0.60802378    -0.81100
O569        O  0.19092181  0.74660941  0.68588083    -0.83800
C570        C  0.17558309  0.60420207  0.71571596     0.96900
C571        C  0.31757227  0.60804905  0.72204703     1.04400
O572        O  0.24386419  0.67172775  0.67519034    -1.12800
O573        O  0.30021997  0.74280096  0.67549994    -0.75300
O574        O  0.28824527  0.71826782  0.73799779    -0.78800
O575        O  0.18666345  0.60187199  0.67727221    -0.79400
C576        C  0.30844752  0.74216643  0.71425242     0.95800
O577        O  0.17897873  0.70710209  0.73799036    -0.77400
O578        O  0.28649213  0.70029303  0.60060884    -0.82600
C579        C  0.17598294  0.67254054  0.58944488     0.98400
C580        C  0.31319898  0.67212100  0.58970204     1.04400
O581        O  0.20005793  0.64193817  0.59688082    -0.78200
C582        C  0.17041524  0.73826998  0.71987032     1.02700
C583        C  0.38814550  0.82892610  0.73500759     0.02800
C584        C  0.37379844  0.83533173  0.77686771    -0.13300
C585        C  0.34446342  0.80934278  0.79795717     0.00300
C586        C  0.32842782  0.77753758  0.77712234    -0.11800
C587        C  0.33748812  0.77216927  0.73474180     0.02800
C588        C  0.36812420  0.79783825  0.71356986    -0.11300
H589        H  0.38596199  0.86009299  0.79337506     0.08400
H590        H  0.30410032  0.75850489  0.79368023     0.06000
H591        H  0.37642556  0.79357103  0.68104080     0.05800
C592        C  0.10355167  0.83105264  0.74215179     0.02800
C593        C  0.11591133  0.79690413  0.72190541    -0.13300
C594        C  0.14352076  0.76862372  0.74240152     0.00300
C595        C  0.15804878  0.77435631  0.78322364    -0.11800
C596        C  0.15319891  0.80988820  0.80230852     0.02800
C597        C  0.12439204  0.83811036  0.78198728    -0.11300
H598        H  0.10453437  0.79229239  0.69010350     0.08400
H599        H  0.17979501  0.75199185  0.79799187     0.06000
H600        H  0.11865762  0.86521664  0.79677537     0.05800
Fe601      Fe  0.49261260  0.92256188  0.73548884     1.65800
Fe602      Fe  0.48896398  0.96950961  0.64535067     1.73200
Fe603      Fe  0.49807901  0.87354348  0.64457021     1.54400
O604        O  0.04755776  0.84906124  0.68755564    -0.82000
O605        O  0.42737602  0.95074047  0.61351474    -0.80300
O606        O  0.05571663  0.88821903  0.74087594    -0.84500
O607        O  0.44656184  0.87729774  0.73980142    -0.79300
O608        O  0.05977270  0.89042576  0.60802372    -0.81100
O609        O  0.44095658  0.99662523  0.68588771    -0.83800
C610        C  0.42554282  0.85422210  0.71571143     0.96900
C611        C  0.06753517  0.85802631  0.72205153     1.04400
O612        O  0.49385731  0.92172713  0.67519505    -1.12800
O613        O  0.05025544  0.99278144  0.67550939    -0.75300
O614        O  0.03826560  0.96825152  0.73800631    -0.78800
O615        O  0.43662379  0.85188923  0.67726922    -0.79400
C616        C  0.05848322  0.99214383  0.71426196     0.95800
O617        O  0.42898989  0.95712056  0.73799525    -0.77400
O618        O  0.03649633  0.95028041  0.60061940    -0.82600
C619        C  0.42596221  0.92256279  0.58945205     0.98400
C620        C  0.06318485  0.92210207  0.58970570     1.04400
O621        O  0.45002570  0.89195392  0.59688421    -0.78200
C622        C  0.42044140  0.98829013  0.71987447     1.02700
C623        C  0.13819310  0.57889905  0.73501695     0.02800
C624        C  0.11817401  0.54780929  0.71358056    -0.13300
C625        C  0.08753911  0.52213896  0.73475290     0.00300
C626        C  0.07848255  0.52750544  0.77713454    -0.11800
C627        C  0.09450458  0.55931565  0.79796813     0.02800
C628        C  0.12384034  0.58530564  0.77687726    -0.11300
H629        H  0.12647207  0.54354382  0.68105020     0.08400
H630        H  0.05415862  0.50847026  0.79369225     0.06000
H631        H  0.13599648  0.61007063  0.79338234     0.05800
C632        C  0.35359242  0.58108019  0.74214656     0.03200
C633        C  0.37442411  0.58813634  0.78198419    -0.13300
C634        C  0.40321947  0.55991116  0.80230909     0.00300
C635        C  0.40806789  0.52437880  0.78322472    -0.11800
C636        C  0.39355137  0.51864850  0.74240049     0.02800
C637        C  0.36595405  0.54693198  0.72190016    -0.11300
H638        H  0.36868805  0.61524375  0.79677341     0.08400
H639        H  0.42980494  0.50201055  0.79799648     0.06000
H640        H  0.35458342  0.54232111  0.69009632     0.05800
Fe641      Fe  0.75596310  0.31570163  0.48548390     1.65800
Fe642      Fe  0.75963899  0.26875676  0.39534183     1.73200
Fe643      Fe  0.75047371  0.36472082  0.39456933     1.54400
O644        O  0.70098789  0.38918707  0.43755384    -0.82000
O645        O  0.82121514  0.28754735  0.36351058    -0.80300
O646        O  0.69283828  0.35002371  0.49086936    -0.84500
O647        O  0.80198806  0.36098164  0.48980389    -0.79300
O648        O  0.68878547  0.34782029  0.35802388    -0.81100
O649        O  0.80766075  0.24165494  0.43588089    -0.83800
C650        C  0.82300058  0.38406250  0.46571624     0.96900
C651        C  0.68101122  0.38021548  0.47204679     1.04400
O652        O  0.75471965  0.31653703  0.42519003    -1.12800
O653        O  0.69836295  0.24546431  0.42549854    -0.75300
O654        O  0.71033912  0.26999639  0.48799687    -0.78800
O655        O  0.81192118  0.38639228  0.42727243    -0.79400
C656        C  0.69013658  0.24609796  0.46425129     0.95800
O657        O  0.81960504  0.28116311  0.48798976    -0.77400
O658        O  0.71209300  0.28797227  0.35060770    -0.82600
C659        C  0.82260290  0.31572368  0.33944576     0.98400
C660        C  0.68538607  0.31614439  0.33970150     1.04400
O661        O  0.79852739  0.34632599  0.34688115    -0.78200
C662        C  0.82816778  0.24999475  0.46987012     1.02700
C663        C  0.61044012  0.15933752  0.48500668     0.02800
C664        C  0.62478755  0.15293192  0.02686659    -0.13300
C665        C  0.65412302  0.17892073  0.04795593     0.00300
C666        C  0.67015887  0.21072570  0.02712099    -0.11800
C667        C  0.66109729  0.21609444  0.48474069     0.02800
C668        C  0.63046089  0.19042542  0.46356918    -0.11300
H669        H  0.61262366  0.12817052  0.04337406     0.08400
H670        H  0.69448682  0.22975831  0.04367870     0.06000
H671        H  0.62215842  0.19469295  0.43103950     0.05800
C672        C  0.89503305  0.15721282  0.49215209     0.02800
C673        C  0.87419334  0.15015572  0.03198774    -0.13300
C674        C  0.84538582  0.17837747  0.05230896     0.00300
C675        C  0.84053439  0.21390911  0.03322377    -0.11800
C676        C  0.85506229  0.21964124  0.49240144     0.02800
C677        C  0.88267254  0.19136092  0.47190528    -0.11300
H678        H  0.87992888  0.12304901  0.04677649     0.08400
H679        H  0.81878762  0.23627303  0.04799158     0.06000
H680        H  0.89404914  0.19597224  0.44010394     0.05800
Fe681      Fe  0.50597120  0.06570285  0.48548888     1.65800
Fe682      Fe  0.00961714  0.01875428  0.39535060     1.73200
Fe683      Fe  0.00050527  0.11472059  0.39457017     1.54400
O684        O  0.95102696  0.13920358  0.43755583    -0.82000
O685        O  0.57120523  0.03752201  0.36351333    -0.80300
O686        O  0.94286791  0.10004636  0.49087637    -0.84500
O687        O  0.55202262  0.11096671  0.48980103    -0.79300
O688        O  0.93881103  0.09783910  0.35802361    -0.81100
O689        O  0.55762432  0.49163845  0.43588721    -0.83800
C690        C  0.57304219  0.13404173  0.46571093     0.96900
C691        C  0.93104959  0.13023897  0.47205182     1.04400
O692        O  0.00472582  0.06653708  0.42519499    -1.12800
O693        O  0.94832567  0.99548393  0.42551046    -0.75300
O694        O  0.96031790  0.02001330  0.48800754    -0.78800
O695        O  0.56196124  0.13637435  0.42726874    -0.79400
C696        C  0.94009936  0.99612119  0.46426330     0.95800
O697        O  0.56959346  0.03114375  0.48799409    -0.77400
O698        O  0.96208437  0.03798368  0.35062015    -0.82600
C699        C  0.57262112  0.06570022  0.33945165     0.98400
C700        C  0.93539703  0.06616243  0.33970628     1.04400
O701        O  0.54855863  0.09630945  0.34688430    -0.78200
C702        C  0.57814056  0.99997374  0.46987344     1.02700
C703        C  0.86039075  0.40936523  0.48501734     0.02800
C704        C  0.88040926  0.44045541  0.46358182    -0.13300
C705        C  0.91104420  0.46612562  0.48475426     0.00300
C706        C  0.92010172  0.46075812  0.02713542    -0.11800
C707        C  0.90407992  0.42894766  0.04796841     0.02800
C708        C  0.87474405  0.40295791  0.02687718    -0.11300
H709        H  0.87211042  0.44472152  0.43105089     0.08400
H710        H  0.94442660  0.47979367  0.04369376     0.06000
H711        H  0.86258814  0.37819277  0.04338162     0.05800
C712        C  0.64499040  0.40718427  0.49214598     0.02800
C713        C  0.63262828  0.44133206  0.47189948    -0.13300
C714        C  0.60502999  0.46961543  0.49239944     0.00300
C715        C  0.59051206  0.46388541  0.03322354    -0.11800
C716        C  0.59536209  0.42835337  0.05230820     0.02800
C717        C  0.62415870  0.40012833  0.03198381    -0.11300
H718        H  0.64399959  0.44594284  0.44009532     0.08400
H719        H  0.56877470  0.48625247  0.04799417     0.06000
H720        H  0.62989553  0.37302198  0.04677301     0.05800
Fe721      Fe  0.74262016  0.17256323  0.23548435     1.65800
Fe722      Fe  0.73894485  0.21950799  0.14534232     1.73200
Fe723      Fe  0.74811100  0.12354388  0.14456921     1.54400
O724        O  0.79759685  0.09907794  0.18755345    -0.82000
O725        O  0.67737003  0.20071713  0.11350955    -0.80300
O726        O  0.80574423  0.13824057  0.24087020    -0.84500
O727        O  0.69659463  0.12728358  0.23980377    -0.79300
O728        O  0.80979929  0.14044489  0.10802375    -0.81100
O729        O  0.69092174  0.24660951  0.18588075    -0.83800
C730        C  0.67558325  0.10420206  0.21571606     0.96900
C731        C  0.81757227  0.10804916  0.22204704     1.04400
O732        O  0.74386402  0.17172773  0.17519032    -1.12800
O733        O  0.80021987  0.24280088  0.17549992    -0.75300
O734        O  0.78824512  0.21826794  0.23799785    -0.78800
O735        O  0.68666360  0.10187189  0.17727233    -0.79400
C736        C  0.80844742  0.24216647  0.21425242     0.95800
O737        O  0.67897877  0.20710219  0.23799031    -0.77400
O738        O  0.78649212  0.20029300  0.10060882    -0.82600
C739        C  0.67598285  0.17254050  0.08944486     0.98400
C740        C  0.81319889  0.17212100  0.08970201     1.04400
O741        O  0.70005773  0.14193811  0.09688090    -0.78200
C742        C  0.67041530  0.23827005  0.21987035     1.02700
C743        C  0.88814562  0.32892608  0.23500750     0.02800
C744        C  0.87379857  0.33533177  0.27686760    -0.13300
C745        C  0.84446365  0.30934285  0.29795718     0.00300
C746        C  0.82842805  0.27753775  0.27712228    -0.11800
C747        C  0.83748811  0.27216932  0.23474176     0.02800
C748        C  0.86812422  0.29783826  0.21356985    -0.11300
H749        H  0.88596223  0.36009332  0.29337501     0.08400
H750        H  0.80410006  0.25850469  0.29368054     0.06000
H751        H  0.87642561  0.29357098  0.18104040     0.05800
C752        C  0.60355185  0.33105269  0.24215172     0.02800
C753        C  0.61591153  0.29690417  0.22190561    -0.13300
C754        C  0.64352072  0.26862374  0.24240154     0.00300
C755        C  0.65804869  0.27435624  0.28322378    -0.11800
C756        C  0.65319880  0.30988820  0.30230860     0.02800
C757        C  0.62439216  0.33811035  0.28198727    -0.11300
H758        H  0.60453418  0.29229229  0.19010261     0.08400
H759        H  0.67979468  0.25199198  0.29799184     0.06000
H760        H  0.61865766  0.36521688  0.29677546     0.05800
Fe761      Fe  0.99261267  0.42256182  0.23548886     1.65800
Fe762      Fe  0.98896411  0.46950967  0.14535072     1.73200
Fe763      Fe  0.99807896  0.37354355  0.14457019     1.54400
O764        O  0.54755772  0.34906120  0.18755566    -0.82000
O765        O  0.92737612  0.45074056  0.11351476    -0.80300
O766        O  0.55571651  0.38821892  0.24087602    -0.84500
O767        O  0.94656204  0.37729764  0.23980133    -0.79300
O768        O  0.55977273  0.39042579  0.10802372    -0.81100
O769        O  0.94095682  0.49662526  0.18588781    -0.83800
C770        C  0.92554293  0.35422207  0.21571137     0.96900
C771        C  0.56753520  0.35802627  0.22205155     1.04400
O772        O  0.99385730  0.42172718  0.17519506    -1.12800
O773        O  0.55025528  0.49278141  0.17550950    -0.75300
O774        O  0.53826565  0.46825136  0.23800642    -0.78800
O775        O  0.93662375  0.35188924  0.17726911    -0.79400
C776        C  0.55848315  0.49214372  0.21426208     0.95800
O777        O  0.92898983  0.45712043  0.23799517    -0.77400
O778        O  0.53649638  0.45028047  0.10061943    -0.82600
C779        C  0.92596225  0.42256287  0.08945205     0.98400
C780        C  0.56318492  0.42210214  0.08970574     1.04400
O781        O  0.95002563  0.39195397  0.09688422    -0.78200
C782        C  0.92044149  0.48829009  0.21987450     1.02700
C783        C  0.63819323  0.07889907  0.23501699     0.02800
C784        C  0.61817402  0.04780936  0.21358077    -0.13300
C785        C  0.58753925  0.02213893  0.23475299     0.00300
C786        C  0.57848280  0.02750557  0.27713459    -0.11800
C787        C  0.59450463  0.05931576  0.29796816     0.02800
C788        C  0.62384049  0.08530586  0.27687737    -0.11300
H789        H  0.62647213  0.04354379  0.18104957     0.08400
H790        H  0.55415847  0.00847001  0.29369259     0.06000
H791        H  0.63599633  0.11007030  0.29338203     0.05800
C792        C  0.85359243  0.08108020  0.24214646     0.03200
C793        C  0.87442398  0.08813650  0.28198430    -0.13300
C794        C  0.90321935  0.05991116  0.30230905     0.00300
C795        C  0.90806802  0.02437867  0.28322483    -0.11800
C796        C  0.89355126  0.01864847  0.24240049     0.02800
C797        C  0.86595408  0.04693199  0.22190027    -0.11300
H798        H  0.86868800  0.11524296  0.29677300     0.08400
H799        H  0.92980429  0.00201121  0.29799598     0.06000
H800        H  0.85458325  0.04232103  0.19009588     0.05800
Fe801      Fe  0.75596316  0.31570162  0.98548396     1.65800
Fe802      Fe  0.75963908  0.26875671  0.89534189     1.73200
Fe803      Fe  0.75047378  0.36472077  0.89456930     1.54400
O804        O  0.70098798  0.38918704  0.93755379    -0.82000
O805        O  0.82121525  0.28754732  0.86351067    -0.80300
O806        O  0.69283840  0.35002375  0.99086939    -0.84500
O807        O  0.80198793  0.36098175  0.98980389    -0.79300
O808        O  0.68878544  0.34782035  0.85802384    -0.81100
O809        O  0.80766076  0.24165483  0.93588101    -0.83800
C810        C  0.82300053  0.38406254  0.96571619     0.96900
C811        C  0.68101132  0.38021549  0.97204677     1.04400
O812        O  0.75471978  0.31653700  0.92519010    -1.12800
O813        O  0.69836290  0.24546423  0.92549851    -0.75300
O814        O  0.71033909  0.26999632  0.98799684    -0.78800
O815        O  0.81192133  0.38639217  0.92727232    -0.79400
C816        C  0.69013655  0.24609791  0.96425129     0.95800
O817        O  0.81960521  0.28116318  0.98798971    -0.77400
O818        O  0.71209319  0.28797238  0.85060768    -0.82600
C819        C  0.82260279  0.31572357  0.83944576     0.98400
C820        C  0.68538617  0.31614448  0.83970141     1.04400
O821        O  0.79852728  0.34632590  0.84688114    -0.78200
C822        C  0.82816784  0.24999475  0.96987019     1.02700
C823        C  0.61043995  0.15933753  0.98500670     0.02800
C824        C  0.62478759  0.15293171  0.52686670    -0.13300
C825        C  0.65412299  0.17892080  0.54795597     0.00300
C826        C  0.67015866  0.21072565  0.52712095    -0.11800
C827        C  0.66109736  0.21609432  0.98474066     0.02800
C828        C  0.63046099  0.19042535  0.96356913    -0.11300
H829        H  0.61262418  0.12817122  0.54337360     0.08400
H830        H  0.69448723  0.22975875  0.54367903     0.06000
H831        H  0.62215868  0.19469278  0.93103952     0.05800
C832        C  0.89503304  0.15721287  0.99215201     0.02800
C833        C  0.87419326  0.15015566  0.53198767    -0.13300
C834        C  0.84538581  0.17837749  0.55230898     0.00300
C835        C  0.84053458  0.21390893  0.53322361    -0.11800
C836        C  0.85506238  0.21964128  0.99240146     0.02800
C837        C  0.88267235  0.19136090  0.97190553    -0.11300
H838        H  0.87992867  0.12304885  0.54677650     0.08400
H839        H  0.81878700  0.23627373  0.54799210     0.06000
H840        H  0.89404936  0.19597236  0.94010277     0.05800
Fe841      Fe  0.50597123  0.06570292  0.98548885     1.65800
Fe842      Fe  0.00961717  0.01875434  0.89535070     1.73200
Fe843      Fe  0.00050538  0.11472061  0.89457011     1.54400
O844        O  0.95102703  0.13920364  0.93755578    -0.82000
O845        O  0.57120517  0.03752191  0.86351331    -0.80300
O846        O  0.94286795  0.10004650  0.99087637    -0.84500
O847        O  0.55202255  0.11096671  0.98980099    -0.79300
O848        O  0.93881117  0.09783912  0.85802356    -0.81100
O849        O  0.55762440  0.49163836  0.93588715    -0.83800
C850        C  0.57304209  0.13404175  0.96571087     0.96900
C851        C  0.93104960  0.13023903  0.97205183     1.04400
O852        O  0.00472589  0.06653717  0.92519501    -1.12800
O853        O  0.94832576  0.99548390  0.92551048    -0.75300
O854        O  0.96031763  0.02001346  0.98800750    -0.78800
O855        O  0.56196120  0.13637431  0.92726870    -0.79400
C856        C  0.94009929  0.99612125  0.96426330     0.95800
O857        O  0.56959358  0.03114389  0.98799402    -0.77400
O858        O  0.96208442  0.03798367  0.85062025    -0.82600
C859        C  0.57262114  0.06570010  0.83945163     0.98400
C860        C  0.93539712  0.06616244  0.83970628     1.04400
O861        O  0.54855876  0.09630940  0.84688429    -0.78200
C862        C  0.57814057  0.99997385  0.96987350     1.02700
C863        C  0.86039071  0.40936524  0.98501730     0.02800
C864        C  0.88040923  0.44045541  0.96358172    -0.13300
C865        C  0.91104423  0.46612560  0.98475419     0.00300
C866        C  0.92010169  0.46075828  0.52713560    -0.11800
C867        C  0.90407988  0.42894766  0.54796844     0.02800
C868        C  0.87474399  0.40295781  0.52687728    -0.11300
H869        H  0.87211038  0.44472149  0.93105084     0.08400
H870        H  0.94442588  0.47979341  0.54369358     0.06000
H871        H  0.86258835  0.37819319  0.54338133     0.05800
C872        C  0.64499043  0.40718427  0.99214600     0.02800
C873        C  0.63262812  0.44133202  0.97189948    -0.13300
C874        C  0.60502994  0.46961540  0.99239942     0.00300
C875        C  0.59051218  0.46388526  0.53322348    -0.11800
C876        C  0.59536193  0.42835327  0.55230811     0.02800
C877        C  0.62415856  0.40012810  0.53198377    -0.11300
H878        H  0.64399935  0.44594274  0.94009520     0.08400
H879        H  0.56877439  0.48625279  0.54799451     0.06000
H880        H  0.62989518  0.37302238  0.54677256     0.05800
Fe881      Fe  0.74262023  0.17256317  0.73548433     1.65800
Fe882      Fe  0.73894494  0.21950802  0.64534239     1.73200
Fe883      Fe  0.74811109  0.12354392  0.64456919     1.54400
O884        O  0.79759684  0.09907788  0.68755353    -0.82000
O885        O  0.67737017  0.20071714  0.61350959    -0.80300
O886        O  0.80574441  0.13824061  0.74087014    -0.84500
O887        O  0.69659458  0.12728353  0.73980373    -0.79300
O888        O  0.80979942  0.14044493  0.60802378    -0.81100
O889        O  0.69092163  0.24660942  0.68588077    -0.83800
C890        C  0.67558310  0.10420212  0.71571596     0.96900
C891        C  0.81757228  0.10804910  0.72204704     1.04400
O892        O  0.74386418  0.17172775  0.67519034    -1.12800
O893        O  0.80021997  0.24280097  0.67549995    -0.75300
O894        O  0.78824530  0.21826782  0.73799778    -0.78800
O895        O  0.68666345  0.10187203  0.67727222    -0.79400
C896        C  0.80844757  0.24216641  0.71425244     0.95800
O897        O  0.67897875  0.20710214  0.73799038    -0.77400
O898        O  0.78649214  0.20029304  0.60060886    -0.82600
C899        C  0.67598294  0.17254049  0.58944487     0.98400
C900        C  0.81319899  0.17212098  0.58970204     1.04400
O901        O  0.70005794  0.14193818  0.59688082    -0.78200
C902        C  0.67041518  0.23827001  0.71987031     1.02700
C903        C  0.88814545  0.32892611  0.73500758     0.02800
C904        C  0.87379842  0.33533176  0.77686772    -0.13300
C905        C  0.84446343  0.30934279  0.79795717     0.00300
C906        C  0.82842781  0.27753761  0.77712234    -0.11800
C907        C  0.83748814  0.27216928  0.73474179     0.02800
C908        C  0.86812419  0.29783826  0.71356989    -0.11300
H909        H  0.88596197  0.36009301  0.79337504     0.08400
H910        H  0.80410034  0.25850492  0.79368021     0.06000
H911        H  0.87642566  0.29357102  0.68104068     0.05800
C912        C  0.60355168  0.33105266  0.74215181     0.02800
C913        C  0.61591134  0.29690415  0.72190540    -0.13300
C914        C  0.64352075  0.26862374  0.74240155     0.00300
C915        C  0.65804872  0.27435639  0.78322359    -0.11800
C916        C  0.65319893  0.30988822  0.80230854     0.02800
C917        C  0.62439204  0.33811019  0.78198721    -0.11300
H918        H  0.60453439  0.29229242  0.69010348     0.08400
H919        H  0.67979540  0.25199150  0.79799215     0.06000
H920        H  0.61865741  0.36521734  0.79677582     0.05800
Fe921      Fe  0.99261261  0.42256180  0.73548884     1.65800
Fe922      Fe  0.98896399  0.46950963  0.64535068     1.73200
Fe923      Fe  0.99807896  0.37354350  0.64457021     1.54400
O924        O  0.54755776  0.34906128  0.68755565    -0.82000
O925        O  0.92737603  0.45074051  0.61351473    -0.80300
O926        O  0.55571667  0.38821903  0.74087595    -0.84500
O927        O  0.94656194  0.37729758  0.73980144    -0.79300
O928        O  0.55977269  0.39042566  0.60802369    -0.81100
O929        O  0.94095659  0.49662524  0.68588771    -0.83800
C930        C  0.92554276  0.35422209  0.71571142     0.96900
C931        C  0.56753520  0.35802631  0.72205152     1.04400
O932        O  0.99385733  0.42172714  0.67519504    -1.12800
O933        O  0.55025546  0.49278143  0.67550940    -0.75300
O934        O  0.53826559  0.46825146  0.73800630    -0.78800
O935        O  0.93662359  0.35188932  0.67726917    -0.79400
C936        C  0.55848324  0.49214376  0.71426198     0.95800
O937        O  0.92898989  0.45712054  0.73799526    -0.77400
O938        O  0.53649637  0.45028032  0.60061943    -0.82600
C939        C  0.92596222  0.42256281  0.58945205     0.98400
C940        C  0.56318484  0.42210197  0.58970569     1.04400
O941        O  0.95002571  0.39195396  0.59688421    -0.78200
C942        C  0.92044141  0.48829010  0.71987450     1.02700
C943        C  0.63819311  0.07889910  0.73501696     0.02800
C944        C  0.61817401  0.04780935  0.71358052    -0.13300
C945        C  0.58753909  0.02213902  0.73475290     0.00300
C946        C  0.57848257  0.02750548  0.77713453    -0.11800
C947        C  0.59450461  0.05931567  0.79796814     0.02800
C948        C  0.62384035  0.08530568  0.77687726    -0.11300
H949        H  0.62647197  0.04354394  0.68105036     0.08400
H950        H  0.55415860  0.00847028  0.79369227     0.06000
H951        H  0.63599648  0.11007065  0.79338234     0.05800
C952        C  0.85359240  0.08108016  0.74214655     0.03200
C953        C  0.87442392  0.08813645  0.78198434    -0.13300
C954        C  0.90321941  0.05991108  0.80230911     0.00300
C955        C  0.90806786  0.02437881  0.78322470    -0.11800
C956        C  0.89355135  0.01864847  0.74240050     0.02800
C957        C  0.86595404  0.04693200  0.72190015    -0.11300
H958        H  0.86868798  0.11524287  0.79677307     0.08400
H959        H  0.92980514  0.00201040  0.79799653     0.06000
H960        H  0.85458351  0.04232115  0.69009634     0.05800
Fe961      Fe  0.75596315  0.81570165  0.48548390     1.65800
Fe962      Fe  0.75963910  0.76875677  0.39534184     1.73200
Fe963      Fe  0.75047377  0.86472081  0.39456933     1.54400
O964        O  0.70098803  0.88918706  0.43755388    -0.82000
O965        O  0.82121528  0.78754744  0.36351067    -0.80300
O966        O  0.69283838  0.85002369  0.49086937    -0.84500
O967        O  0.80198792  0.86098177  0.48980394    -0.79300
O968        O  0.68878540  0.84782031  0.35802395    -0.81100
O969        O  0.80766082  0.74165494  0.43588093    -0.83800
C970        C  0.82300059  0.88406254  0.46571623     0.96900
C971        C  0.68101132  0.88021545  0.47204680     1.04400
O972        O  0.75471980  0.81653704  0.42519004    -1.12800
O973        O  0.69836291  0.74546430  0.42549851    -0.75300
O974        O  0.71033909  0.76999638  0.48799684    -0.78800
O975        O  0.81192133  0.88639220  0.42727239    -0.79400
C976        C  0.69013653  0.74609796  0.46425126     0.95800
O977        O  0.81960518  0.78116321  0.48798971    -0.77400
O978        O  0.71209320  0.78797237  0.35060767    -0.82600
C979        C  0.82260280  0.81572367  0.33944574     0.98400
C980        C  0.68538616  0.81614441  0.33970149     1.04400
O981        O  0.79852724  0.84632598  0.34688108    -0.78200
C982        C  0.82816783  0.74999479  0.46987015     1.02700
C983        C  0.61044001  0.65933753  0.48500670     0.02800
C984        C  0.62478768  0.65293192  0.02686653    -0.13300
C985        C  0.65412302  0.67892074  0.04795597     0.00300
C986        C  0.67015857  0.71072563  0.02712093    -0.11800
C987        C  0.66109737  0.71609437  0.48474067     0.02800
C988        C  0.63046097  0.69042536  0.46356916    -0.11300
H989        H  0.61262368  0.62817022  0.04337419     0.08400
H990        H  0.69448743  0.72975897  0.04367923     0.06000
H991        H  0.62215856  0.69469284  0.43103947     0.05800
C992        C  0.89503296  0.65721281  0.49215203     0.02800
C993        C  0.87419327  0.65015569  0.03198773    -0.13300
C994        C  0.84538578  0.67837750  0.05230894     0.00300
C995        C  0.84053455  0.71390905  0.03322369    -0.11800
C996        C  0.85506234  0.71964128  0.49240148     0.02800
C997        C  0.88267242  0.69136091  0.47190526    -0.11300
H998        H  0.87992871  0.62304905  0.04677647     0.08400
H999        H  0.81878729  0.73627346  0.04799185     0.06000
H1000       H  0.89404890  0.69597220  0.44010392     0.05800
Fe1001     Fe  0.50597124  0.56570292  0.48548888     1.65800
Fe1002     Fe  0.00961718  0.51875435  0.39535062     1.73200
Fe1003     Fe  0.00050538  0.61472058  0.39457017     1.54400
O1004       O  0.95102706  0.63920361  0.43755585    -0.82000
O1005       O  0.57120524  0.53752199  0.36351333    -0.80300
O1006       O  0.94286790  0.60004643  0.49087638    -0.84500
O1007       O  0.55202251  0.61096678  0.48980106    -0.79300
O1008       O  0.93881112  0.59783913  0.35802361    -0.81100
O1009       O  0.55762442  0.99163838  0.43588713    -0.83800
C1010       C  0.57304209  0.63404177  0.46571093     0.96900
C1011       C  0.93104958  0.63023901  0.47205179     1.04400
O1012       O  0.00472589  0.56653714  0.42519502    -1.12800
O1013       O  0.94832578  0.49548384  0.42551047    -0.75300
O1014       O  0.96031771  0.52001340  0.48800751    -0.78800
O1015       O  0.56196117  0.63637432  0.42726875    -0.79400
C1016       C  0.94009934  0.49612119  0.46426330     0.95800
O1017       O  0.56959361  0.53114390  0.48799403    -0.77400
O1018       O  0.96208448  0.53798375  0.35062012    -0.82600
C1019       C  0.57262115  0.56570019  0.33945166     0.98400
C1020       C  0.93539713  0.56616248  0.33970624     1.04400
O1021       O  0.54855876  0.59630945  0.34688434    -0.78200
C1022       C  0.57814056  0.49997383  0.46987348     1.02700
C1023       C  0.86039077  0.90936521  0.48501736     0.02800
C1024       C  0.88040922  0.94045545  0.46358178    -0.13300
C1025       C  0.91104418  0.96612563  0.48475425     0.00300
C1026       C  0.92010165  0.96075812  0.02713543    -0.11800
C1027       C  0.90407992  0.92894770  0.04796840     0.02800
C1028       C  0.87474389  0.90295779  0.02687729    -0.11300
H1029       H  0.87211036  0.94472150  0.43105103     0.08400
H1030       H  0.94442662  0.97979385  0.04369389     0.06000
H1031       H  0.86258843  0.87819359  0.04338110     0.05800
C1032       C  0.64499037  0.90718421  0.49214596     0.02800
C1033       C  0.63262816  0.94133195  0.47189942    -0.13300
C1034       C  0.60502995  0.96961537  0.49239942     0.00300
C1035       C  0.59051222  0.96388533  0.03322350    -0.11800
C1036       C  0.59536198  0.92835334  0.05230816     0.02800
C1037       C  0.62415857  0.90012827  0.03198378    -0.11300
H1038       H  0.64399942  0.94594272  0.44009527     0.08400
H1039       H  0.56877451  0.98625287  0.04799451     0.06000
H1040       H  0.62989528  0.87302189  0.04677295     0.05800
Fe1041     Fe  0.74262022  0.67256321  0.23548433     1.65800
Fe1042     Fe  0.73894497  0.71950807  0.14534232     1.73200
Fe1043     Fe  0.74811109  0.62354388  0.14456921     1.54400
O1044       O  0.79759690  0.59907794  0.18755351    -0.82000
O1045       O  0.67737019  0.70071712  0.11350956    -0.80300
O1046       O  0.80574437  0.63824065  0.24087016    -0.84500
O1047       O  0.69659457  0.62728354  0.23980380    -0.79300
O1048       O  0.80979945  0.64044490  0.10802378    -0.81100
O1049       O  0.69092186  0.74660952  0.18588080    -0.83800
C1050       C  0.67558311  0.60420210  0.21571604     0.96900
C1051       C  0.81757231  0.60804918  0.22204706     1.04400
O1052       O  0.74386419  0.67172777  0.17519030    -1.12800
O1053       O  0.80021997  0.74280101  0.17549991    -0.75300
O1054       O  0.78824528  0.71826790  0.23799779    -0.78800
O1055       O  0.68666346  0.60187201  0.17727230    -0.79400
C1056       C  0.80844755  0.74216648  0.21425240     0.95800
O1057       O  0.67897870  0.70710212  0.23799027    -0.77400
O1058       O  0.78649209  0.70029300  0.10060880    -0.82600
C1059       C  0.67598297  0.67254047  0.08944486     0.98400
C1060       C  0.81319893  0.67212097  0.08970200     1.04400
O1061       O  0.70005789  0.64193809  0.09688087    -0.78200
C1062       C  0.67041527  0.73827000  0.21987034     1.02700
C1063       C  0.88814548  0.82892610  0.23500751     0.02800
C1064       C  0.87379839  0.83533177  0.27686762    -0.13300
C1065       C  0.84446347  0.80934285  0.29795715     0.00300
C1066       C  0.82842784  0.77753768  0.27712232    -0.11800
C1067       C  0.83748810  0.77216934  0.23474176     0.02800
C1068       C  0.86812417  0.79783828  0.21356990    -0.11300
H1069       H  0.88596201  0.86009327  0.29337501     0.08400
H1070       H  0.80410029  0.75850489  0.29368032     0.06000
H1071       H  0.87642571  0.79357098  0.18104036     0.05800
C1072       C  0.60355172  0.83105261  0.24215178     0.02800
C1073       C  0.61591142  0.79690407  0.22190564    -0.13300
C1074       C  0.64352075  0.76862372  0.24240153     0.00300
C1075       C  0.65804889  0.77435617  0.28322378    -0.11800
C1076       C  0.65319887  0.80988822  0.30230857     0.02800
C1077       C  0.62439210  0.83811014  0.28198723    -0.11300
H1078       H  0.60453401  0.79229219  0.19010271     0.08400
H1079       H  0.67979457  0.75199227  0.29799162     0.06000
H1080       H  0.61865740  0.86521736  0.29677582     0.05800
Fe1081     Fe  0.99261260  0.92256179  0.23548887     1.65800
Fe1082     Fe  0.98896399  0.96950963  0.14535071     1.73200
Fe1083     Fe  0.99807897  0.87354350  0.14457019     1.54400
O1084       O  0.54755773  0.84906117  0.18755564    -0.82000
O1085       O  0.92737597  0.95074049  0.11351480    -0.80300
O1086       O  0.55571660  0.88821890  0.24087600    -0.84500
O1087       O  0.94656185  0.87729764  0.23980132    -0.79300
O1088       O  0.55977272  0.89042577  0.10802373    -0.81100
O1089       O  0.94095661  0.99662523  0.18588774    -0.83800
C1090       C  0.92554278  0.85422208  0.21571137     0.96900
C1091       C  0.56753517  0.85802620  0.22205155     1.04400
O1092       O  0.99385736  0.92172715  0.17519507    -1.12800
O1093       O  0.55025548  0.99278134  0.17550950    -0.75300
O1094       O  0.53826564  0.96825140  0.23800643    -0.78800
O1095       O  0.93662366  0.85188921  0.17726910    -0.79400
C1096       C  0.55848327  0.99214371  0.21426208     0.95800
O1097       O  0.92898989  0.95712051  0.23799524    -0.77400
O1098       O  0.53649629  0.95028040  0.10061937    -0.82600
C1099       C  0.92596220  0.92256282  0.08945205     0.98400
C1100       C  0.56318484  0.92210208  0.08970570     1.04400
O1101       O  0.95002573  0.89195399  0.09688419    -0.78200
C1102       C  0.92044141  0.98829008  0.21987452     1.02700
C1103       C  0.63819306  0.57889907  0.23501697     0.02800
C1104       C  0.61817385  0.54780934  0.21358075    -0.13300
C1105       C  0.58753908  0.52213893  0.23475299     0.00300
C1106       C  0.57848262  0.52750555  0.27713458    -0.11800
C1107       C  0.59450452  0.55931571  0.29796815     0.02800
C1108       C  0.62384033  0.58530577  0.27687733    -0.11300
H1109       H  0.62647196  0.54354376  0.18104955     0.08400
H1110       H  0.55415828  0.50846999  0.29369260     0.06000
H1111       H  0.63599633  0.61007041  0.29338218     0.05800
C1112       C  0.85359244  0.58108021  0.24214651     0.03200
C1113       C  0.87442393  0.58813650  0.28198435    -0.13300
C1114       C  0.90321940  0.55991114  0.30230906     0.00300
C1115       C  0.90806789  0.52437872  0.28322480    -0.11800
C1116       C  0.89355132  0.51864846  0.24240051     0.02800
C1117       C  0.86595409  0.54693202  0.22190020    -0.11300
H1118       H  0.86868795  0.61524280  0.29677301     0.08400
H1119       H  0.92980462  0.50201078  0.29799630     0.06000
H1120       H  0.85458346  0.54232114  0.19009617     0.05800
Fe1121     Fe  0.75596309  0.81570167  0.98548395     1.65800
Fe1122     Fe  0.75963896  0.76875668  0.89534190     1.73200
Fe1123     Fe  0.75047374  0.86472077  0.89456930     1.54400
O1124       O  0.70098787  0.88918709  0.93755379    -0.82000
O1125       O  0.82121507  0.78754731  0.86351062    -0.80300
O1126       O  0.69283824  0.85002375  0.99086934    -0.84500
O1127       O  0.80198799  0.86098175  0.98980387    -0.79300
O1128       O  0.68878546  0.84782033  0.85802380    -0.81100
O1129       O  0.80766068  0.74165479  0.93588101    -0.83800
C1130       C  0.82300061  0.88406251  0.96571617     0.96900
C1131       C  0.68101119  0.88021550  0.97204676     1.04400
O1132       O  0.75471961  0.81653699  0.92519009    -1.12800
O1133       O  0.69836295  0.74546417  0.92549855    -0.75300
O1134       O  0.71033915  0.76999633  0.98799685    -0.78800
O1135       O  0.81192137  0.88639213  0.92727231    -0.79400
C1136       C  0.69013661  0.74609789  0.96425132     0.95800
O1137       O  0.81960509  0.78116316  0.98798971    -0.77400
O1138       O  0.71209301  0.78797230  0.85060771    -0.82600
C1139       C  0.82260283  0.81572359  0.83944577     0.98400
C1140       C  0.68538606  0.81614445  0.83970144     1.04400
O1141       O  0.79852742  0.84632597  0.84688117    -0.78200
C1142       C  0.82816782  0.74999474  0.96987017     1.02700
C1143       C  0.61044010  0.65933751  0.98500667     0.02800
C1144       C  0.62478747  0.65293189  0.52686668    -0.13300
C1145       C  0.65412300  0.67892079  0.54795595     0.00300
C1146       C  0.67015883  0.71072561  0.52712091    -0.11800
C1147       C  0.66109731  0.71609440  0.98474071     0.02800
C1148       C  0.63046109  0.69042535  0.96356915    -0.11300
H1149       H  0.61262369  0.62817093  0.54337396     0.08400
H1150       H  0.69448741  0.72975865  0.54367898     0.06000
H1151       H  0.62215881  0.69469280  0.93103929     0.05800
C1152       C  0.89503308  0.65721288  0.99215205     0.02800
C1153       C  0.87419333  0.65015555  0.53198776    -0.13300
C1154       C  0.84538585  0.67837748  0.55230900     0.00300
C1155       C  0.84053446  0.71390900  0.53322368    -0.11800
C1156       C  0.85506248  0.71964132  0.99240145     0.02800
C1157       C  0.88267248  0.69136090  0.97190555    -0.11300
H1158       H  0.87992869  0.62304945  0.54677620     0.08400
H1159       H  0.81878722  0.73627336  0.54799182     0.06000
H1160       H  0.89404953  0.69597235  0.94010277     0.05800
Fe1161     Fe  0.50597117  0.56570293  0.98548885     1.65800
Fe1162     Fe  0.00961716  0.51875433  0.89535070     1.73200
Fe1163     Fe  0.00050540  0.61472064  0.89457012     1.54400
O1164       O  0.95102704  0.63920369  0.93755579    -0.82000
O1165       O  0.57120514  0.53752195  0.86351331    -0.80300
O1166       O  0.94286791  0.60004645  0.99087632    -0.84500
O1167       O  0.55202255  0.61096679  0.98980101    -0.79300
O1168       O  0.93881116  0.59783913  0.85802360    -0.81100
O1169       O  0.55762434  0.99163846  0.93588720    -0.83800
C1170       C  0.57304217  0.63404179  0.96571085     0.96900
C1171       C  0.93104961  0.63023903  0.97205184     1.04400
O1172       O  0.00472585  0.56653718  0.92519501    -1.12800
O1173       O  0.94832570  0.49548392  0.92551046    -0.75300
O1174       O  0.96031784  0.52001334  0.98800749    -0.78800
O1175       O  0.56196129  0.63637432  0.92726867    -0.79400
C1176       C  0.94009936  0.49612119  0.96426328     0.95800
O1177       O  0.56959343  0.53114381  0.98799401    -0.77400
O1178       O  0.96208455  0.53798373  0.85062020    -0.82600
C1179       C  0.57262108  0.56570012  0.83945161     0.98400
C1180       C  0.93539720  0.56616246  0.83970627     1.04400
O1181       O  0.54855864  0.59630941  0.84688425    -0.78200
C1182       C  0.57814052  0.49997378  0.96987347     1.02700
C1183       C  0.86039072  0.90936530  0.98501727     0.02800
C1184       C  0.88040924  0.94045544  0.96358173    -0.13300
C1185       C  0.91104426  0.96612563  0.98475419     0.00300
C1186       C  0.92010179  0.96075828  0.52713558    -0.11800
C1187       C  0.90407986  0.92894766  0.54796846     0.02800
C1188       C  0.87474408  0.90295802  0.52687718    -0.11300
H1189       H  0.87211040  0.94472159  0.93105082     0.08400
H1190       H  0.94442600  0.97979323  0.54369346     0.06000
H1191       H  0.86258793  0.87819242  0.54338191     0.05800
C1192       C  0.64499040  0.90718429  0.99214602     0.02800
C1193       C  0.63262819  0.94133204  0.97189951    -0.13300
C1194       C  0.60502999  0.96961543  0.99239943     0.00300
C1195       C  0.59051236  0.96388520  0.53322344    -0.11800
C1196       C  0.59536209  0.92835336  0.55230819     0.02800
C1197       C  0.62415866  0.90012809  0.53198382    -0.11300
H1198       H  0.64399948  0.94594276  0.94009518     0.08400
H1199       H  0.56877412  0.98625321  0.54799477     0.06000
H1200       H  0.62989531  0.87302251  0.54677261     0.05800
Fe1201     Fe  0.74262025  0.67256314  0.73548434     1.65800
Fe1202     Fe  0.73894484  0.71950802  0.64534238     1.73200
Fe1203     Fe  0.74811097  0.62354392  0.64456920     1.54400
O1204       O  0.79759672  0.59907784  0.68755354    -0.82000
O1205       O  0.67737000  0.70071713  0.61350960    -0.80300
O1206       O  0.80574446  0.63824061  0.74087009    -0.84500
O1207       O  0.69659467  0.62728347  0.73980373    -0.79300
O1208       O  0.80979925  0.64044490  0.60802374    -0.81100
O1209       O  0.69092169  0.74660939  0.68588078    -0.83800
C1210       C  0.67558321  0.60420204  0.71571597     0.96900
C1211       C  0.81757227  0.60804907  0.72204702     1.04400
O1212       O  0.74386403  0.67172775  0.67519034    -1.12800
O1213       O  0.80021980  0.74280101  0.67549996    -0.75300
O1214       O  0.78824532  0.71826780  0.73799780    -0.78800
O1215       O  0.68666350  0.60187197  0.67727223    -0.79400
C1216       C  0.80844750  0.74216645  0.71425242     0.95800
O1217       O  0.67897882  0.70710211  0.73799040    -0.77400
O1218       O  0.78649215  0.70029304  0.60060888    -0.82600
C1219       C  0.67598282  0.67254053  0.58944488     0.98400
C1220       C  0.81319893  0.67212101  0.58970205     1.04400
O1221       O  0.70005777  0.64193816  0.59688085    -0.78200
C1222       C  0.67041530  0.73827000  0.71987034     1.02700
C1223       C  0.88814566  0.82892608  0.73500762     0.02800
C1224       C  0.87379863  0.83533172  0.77686773    -0.13300
C1225       C  0.84446359  0.80934276  0.79795721     0.00300
C1226       C  0.82842805  0.77753764  0.77712229    -0.11800
C1227       C  0.83748822  0.77216926  0.73474179     0.02800
C1228       C  0.86812435  0.79783824  0.71356982    -0.11300
H1229       H  0.88596217  0.86009299  0.79337506     0.08400
H1230       H  0.80410007  0.75850465  0.79368043     0.06000
H1231       H  0.87642561  0.79357110  0.68104092     0.05800
C1232       C  0.60355180  0.83105268  0.74215175     0.02800
C1233       C  0.61591148  0.79690417  0.72190538    -0.13300
C1234       C  0.64352085  0.76862373  0.74240154     0.00300
C1235       C  0.65804863  0.77435635  0.78322365    -0.11800
C1236       C  0.65319883  0.80988818  0.80230856     0.02800
C1237       C  0.62439212  0.83811040  0.78198723    -0.11300
H1238       H  0.60453456  0.79229241  0.69010346     0.08400
H1239       H  0.67979517  0.75199150  0.79799216     0.06000
H1240       H  0.61865777  0.86521672  0.79677531     0.05800
Fe1241     Fe  0.99261266  0.92256189  0.73548883     1.65800
Fe1242     Fe  0.98896409  0.96950961  0.64535069     1.73200
Fe1243     Fe  0.99807894  0.87354348  0.64457021     1.54400
O1244       O  0.54755777  0.84906122  0.68755565    -0.82000
O1245       O  0.92737617  0.95074051  0.61351472    -0.80300
O1246       O  0.55571652  0.88821899  0.74087597    -0.84500
O1247       O  0.94656203  0.87729770  0.73980142    -0.79300
O1248       O  0.55977271  0.89042574  0.60802368    -0.81100
O1249       O  0.94095677  0.99662525  0.68588776    -0.83800
C1250       C  0.92554292  0.85422209  0.71571144     0.96900
C1251       C  0.56753518  0.85802631  0.72205153     1.04400
O1252       O  0.99385724  0.92172713  0.67519504    -1.12800
O1253       O  0.55025525  0.99278149  0.67550940    -0.75300
O1254       O  0.53826564  0.96825146  0.73800631    -0.78800
O1255       O  0.93662371  0.85188927  0.67726920    -0.79400
C1256       C  0.55848313  0.99214383  0.71426196     0.95800
O1257       O  0.92898987  0.95712053  0.73799523    -0.77400
O1258       O  0.53649642  0.95028044  0.60061944    -0.82600
C1259       C  0.92596225  0.92256282  0.58945204     0.98400
C1260       C  0.56318494  0.92210207  0.58970573     1.04400
O1261       O  0.95002558  0.89195388  0.59688422    -0.78200
C1262       C  0.92044148  0.98829015  0.71987446     1.02700
C1263       C  0.63819322  0.57889904  0.73501695     0.02800
C1264       C  0.61817400  0.54780934  0.71358055    -0.13300
C1265       C  0.58753922  0.52213895  0.73475291     0.00300
C1266       C  0.57848273  0.52750541  0.77713457    -0.11800
C1267       C  0.59450468  0.55931565  0.79796814     0.02800
C1268       C  0.62384049  0.58530567  0.77687730    -0.11300
H1269       H  0.62647194  0.54354393  0.68105011     0.08400
H1270       H  0.55415885  0.50847023  0.79369227     0.06000
H1271       H  0.63599651  0.61007048  0.79338221     0.05800
C1272       C  0.85359236  0.58108017  0.74214655     0.03200
C1273       C  0.87442399  0.58813629  0.78198425    -0.13300
C1274       C  0.90321942  0.55991116  0.80230909     0.00300
C1275       C  0.90806801  0.52437873  0.78322477    -0.11800
C1276       C  0.89355130  0.51864849  0.74240049     0.02800
C1277       C  0.86595409  0.54693198  0.72190022    -0.11300
H1278       H  0.86868787  0.61524372  0.79677345     0.08400
H1279       H  0.92980468  0.50201095  0.79799618     0.06000
H1280       H  0.85458339  0.54232110  0.69009599     0.05800
loop_ 
_geom_bond_atom_site_label_1 
_geom_bond_atom_site_label_2 
_geom_bond_distance 
_geom_bond_site_symmetry_2 
_ccdc_geom_bond_type 
Fe1          O17   2.069       .  S
Fe1           O7   2.043       .  S
Fe1          O14   2.045       .  S
Fe1           O6   2.059       .  S
Fe1          O12   1.947       .  S
Fe2           O5   2.051       .  S
Fe2           O9   2.053       .  S
Fe2          O13   2.079       .  S
Fe2          O18   2.027       .  S
Fe2          O12   1.955       .  S
Fe3          O21   2.095       .  S
Fe3           O8   2.113       .  S
Fe3          O15   2.100       .  S
Fe3           O4   2.088       .  S
Fe3          O12   1.979       .  S
O4           C11   1.276       .  A
O5           C19   1.268       .  A
O6           C11   1.267       .  A
O7           C10   1.267       .  A
O8           C20   1.276       .  A
O9           C22   1.262       .  A
C10          O15   1.278       .  A
C10          C63   1.488       .  S
C11          C72   1.489       .  S
O13          C16   1.270       .  A
O14          C16   1.270       .  A
C16          C27   1.483       .  S
O17          C22   1.269       .  A
O18          C20   1.265       .  A
C19          O21   1.273       .  A
C19         C105   1.475       .  S
C20         C116   1.497       .  S
C22          C36   1.474       .  S
C23          C50   1.488       .  S
C23          C28   1.416       .  A
C23         C184   1.421       .  A
C24          C25   1.396       .  A
C24         C183   1.421   1_554  A
C24          H29   1.083       .  S
C25          C99   1.475       .  S
C25          C26   1.389       .  A
C26         C187   1.401   1_554  A
C26          H30   1.084       .  S
C27          C28   1.410       .  A
C27         C186   1.401       .  A
C28          H31   1.083       .  S
C32          C51   1.489       .  S
C32          C37   1.411       .  A
C32         C193   1.424       .  A
C33          C34   1.411       .  A
C33         C192   1.424   1_554  A
C33          H38   1.083       .  S
C34         C100   1.497       .  S
C34          C35   1.409       .  A
C35         C196   1.389   1_554  A
C35          H39   1.083       .  S
C36          C37   1.398       .  A
C36         C195   1.389       .  A
C37          H40   1.083       .  S
Fe41         O57   2.069       .  S
Fe41         O47   2.043       .  S
Fe41        O694   2.045   1_455  S
Fe41        O686   2.059   1_455  S
Fe41        O692   1.947       .  S
Fe42         O53   2.079   1_545  S
Fe42         O58   2.026       .  S
Fe42        O685   2.051       .  S
Fe42       O1009   2.053   1_545  S
Fe42         O52   1.955       .  S
Fe43         O48   2.113       .  S
Fe43         O44   2.088       .  S
Fe43        O701   2.095       .  S
Fe43        O695   2.100       .  S
Fe43         O52   1.979       .  S
O44          C51   1.276       .  A
O45        Fe682   2.051       .  S
O45          C59   1.268       .  A
O46        Fe681   2.059       .  S
O46          C51   1.267       .  A
O47          C50   1.267       .  A
O48          C60   1.276       .  A
O49       Fe1002   2.053       .  S
O49         C382   1.262       .  A
C50          O55   1.278       .  A
O52        Fe681   1.947       .  S
O53          C56   1.270       .  A
O54        Fe681   2.045       .  S
O54          C56   1.270   1_545  A
O55        Fe683   2.100       .  S
C56         C385   1.483       .  S
O57          C62   1.269   1_545  A
O58          C60   1.265       .  A
C59          O61   1.273       .  A
C59         C147   1.475       .  S
C60         C154   1.497       .  S
O61        Fe683   2.095       .  S
C62         O369   1.262       .  A
C62         C394   1.474       .  S
C63          C64   1.416       .  A
C63         C228   1.421       .  A
C64          C65   1.410       .  A
C64          H69   1.083       .  S
C65         C376   1.483       .  S
C65         C226   1.401       .  A
C66          C67   1.389       .  A
C66         C225   1.401   1_554  A
C66          H70   1.084       .  S
C67         C139   1.475       .  S
C67          C68   1.396       .  A
C68         C223   1.421   1_554  A
C68          H71   1.083       .  S
C72          C73   1.411       .  A
C72         C237   1.424       .  A
C73          C74   1.398       .  A
C73          H78   1.083       .  S
C74         C382   1.474       .  S
C74         C235   1.389       .  A
C75          C76   1.409       .  A
C75         C234   1.389   1_554  A
C75          H79   1.083       .  S
C76         C140   1.497       .  S
C76          C77   1.411       .  A
C77         C232   1.424   1_554  A
C77          H80   1.083       .  S
Fe81         O97   2.069       .  S
Fe81         O87   2.043       .  S
Fe81         O94   2.045       .  S
Fe81         O86   2.059       .  S
Fe81         O92   1.947       .  S
Fe82         O85   2.051       .  S
Fe82         O89   2.053       .  S
Fe82         O93   2.079       .  S
Fe82         O98   2.027       .  S
Fe82         O92   1.955       .  S
Fe83        O101   2.095       .  S
Fe83         O88   2.113       .  S
Fe83         O95   2.100       .  S
Fe83         O84   2.088       .  S
Fe83         O92   1.979       .  S
O84          C91   1.276       .  A
O85          C99   1.268       .  A
O86          C91   1.267       .  A
O87          C90   1.267       .  A
O88         C100   1.276       .  A
O89         C102   1.262       .  A
C90          O95   1.278       .  A
C90         C143   1.488       .  S
C91         C152   1.489       .  S
O93          C96   1.270       .  A
O94          C96   1.270       .  A
C96         C107   1.483       .  S
O97         C102   1.269       .  A
O98         C100   1.265       .  A
C99         O101   1.273       .  A
C102        C114   1.474       .  S
C103        C130   1.488       .  S
C103        C104   1.421       .  A
C103        C108   1.416       .  A
C104        C105   1.396       .  A
C104        H109   1.083       .  S
C105        C106   1.389       .  A
C106        C107   1.401       .  A
C106        H110   1.084       .  S
C107        C108   1.410       .  A
C108        H111   1.083       .  S
C112        C131   1.489       .  S
C112        C113   1.411       .  A
C112        C117   1.424       .  A
C113        C114   1.398       .  A
C113        H118   1.083       .  S
C114        C115   1.389       .  A
C115        C116   1.409       .  A
C115        H119   1.083       .  S
C116        C117   1.411       .  A
C117        H120   1.083       .  S
Fe121       O137   2.069       .  S
Fe121       O127   2.043       .  S
Fe121       O774   2.045       .  S
Fe121       O766   2.059       .  S
Fe121       O132   1.947       .  S
Fe122       O125   2.051       .  S
Fe122       O129   2.053       .  S
Fe122       O773   2.079       .  S
Fe122       O778   2.026       .  S
Fe122       O132   1.955       .  S
Fe123       O141   2.095       .  S
Fe123       O135   2.100       .  S
Fe123       O768   2.113       .  S
Fe123       O764   2.088       .  S
Fe123       O132   1.979       .  S
O124       Fe763   2.088   1_455  S
O124        C131   1.276       .  A
O125        C139   1.268       .  A
O126       Fe761   2.059   1_455  S
O126        C131   1.267       .  A
O127        C130   1.267       .  A
O128       Fe763   2.113   1_455  S
O128        C140   1.276       .  A
O129        C142   1.262       .  A
C130        O135   1.278       .  A
O133       Fe762   2.079   1_455  S
O133        C136   1.270       .  A
O134       Fe761   2.045   1_455  S
O134        C136   1.270       .  A
C136        C465   1.483       .  S
O137        C142   1.269       .  A
O138       Fe762   2.026   1_455  S
O138        C140   1.265       .  A
C139        O141   1.273       .  A
C142        C476   1.474       .  S
C143        C144   1.416       .  A
C143        C148   1.421       .  A
C144        C145   1.410       .  A
C144        H149   1.083       .  S
C145        C456   1.483   1_545  S
C145        C146   1.401       .  A
C146        C147   1.389       .  A
C146        H150   1.084       .  S
C147        C148   1.396       .  A
C148        H151   1.083       .  S
C152        C153   1.424       .  A
C152        C157   1.411       .  A
C153        C154   1.411       .  A
C153        H158   1.083       .  S
C154        C155   1.409       .  A
C155        C156   1.389       .  A
C155        H159   1.083       .  S
C156        C462   1.474   1_545  S
C156        C157   1.398       .  A
C157        H160   1.083       .  S
Fe161       O177   2.069       .  S
Fe161       O167   2.043       .  S
Fe161       O174   2.045       .  S
Fe161       O166   2.059       .  S
Fe161       O172   1.947       .  S
Fe162       O165   2.051       .  S
Fe162       O169   2.053       .  S
Fe162       O173   2.079       .  S
Fe162       O178   2.027       .  S
Fe162       O172   1.955       .  S
Fe163       O181   2.095       .  S
Fe163       O168   2.113       .  S
Fe163       O175   2.100       .  S
Fe163       O164   2.088       .  S
Fe163       O172   1.979       .  S
O164        C171   1.276       .  A
O165        C179   1.268       .  A
O166        C171   1.267       .  A
O167        C170   1.267       .  A
O168        C180   1.276       .  A
O169        C182   1.262       .  A
C170        O175   1.278       .  A
C170        C223   1.488       .  S
C171        C232   1.489       .  S
O173        C176   1.270       .  A
O174        C176   1.270       .  A
C176        C187   1.483       .  S
O177        C182   1.269       .  A
O178        C180   1.265       .  A
C179        O181   1.273       .  A
C179        C265   1.475       .  S
C180        C276   1.497       .  S
C182        C196   1.474       .  S
C183        C210   1.488       .  S
C183        C188   1.416       .  A
C184        C185   1.396       .  A
C184        H189   1.083       .  S
C185        C259   1.475       .  S
C185        C186   1.389       .  A
C186        H190   1.084       .  S
C187        C188   1.410       .  A
C188        H191   1.083       .  S
C192        C211   1.489       .  S
C192        C197   1.411       .  A
C193        C194   1.411       .  A
C193        H198   1.083       .  S
C194        C260   1.497       .  S
C194        C195   1.409       .  A
C195        H199   1.083       .  S
C196        C197   1.398       .  A
C197        H200   1.083       .  S
Fe201       O217   2.069       .  S
Fe201       O207   2.043       .  S
Fe201       O854   2.045   1_455  S
Fe201       O846   2.059   1_455  S
Fe201       O852   1.947       .  S
Fe202       O845   2.051       .  S
Fe202      O1169   2.053   1_545  S
Fe202       O213   2.079   1_545  S
Fe202       O218   2.026       .  S
Fe202       O212   1.955       .  S
Fe203       O861   2.095       .  S
Fe203       O208   2.113       .  S
Fe203       O855   2.100       .  S
Fe203       O204   2.088       .  S
Fe203       O212   1.979       .  S
O204        C211   1.276       .  A
O205       Fe842   2.051       .  S
O205        C219   1.268       .  A
O206       Fe841   2.059       .  S
O206        C211   1.267       .  A
O207        C210   1.267       .  A
O208        C220   1.276       .  A
O209      Fe1162   2.053       .  S
O209        C542   1.262       .  A
C210        O215   1.278       .  A
O212       Fe841   1.947       .  S
O213        C216   1.270       .  A
O214       Fe841   2.045       .  S
O214        C216   1.270   1_545  A
O215       Fe843   2.100       .  S
C216        C545   1.483       .  S
O217        C222   1.269   1_545  A
O218        C220   1.265       .  A
C219        O221   1.273       .  A
C219        C307   1.475       .  S
C220        C314   1.497       .  S
O221       Fe843   2.095       .  S
C222        O529   1.262       .  A
C222        C554   1.474       .  S
C223        C224   1.416       .  A
C224        C225   1.410       .  A
C224        H229   1.083       .  S
C225        C536   1.483       .  S
C226        C227   1.389       .  A
C226        H230   1.084       .  S
C227        C299   1.475       .  S
C227        C228   1.396       .  A
C228        H231   1.083       .  S
C232        C233   1.411       .  A
C233        C234   1.398       .  A
C233        H238   1.083       .  S
C234        C542   1.474       .  S
C235        C236   1.409       .  A
C235        H239   1.083       .  S
C236        C300   1.497       .  S
C236        C237   1.411       .  A
C237        H240   1.083       .  S
Fe241       O257   2.069       .  S
Fe241       O247   2.043       .  S
Fe241       O254   2.045       .  S
Fe241       O246   2.059       .  S
Fe241       O252   1.947       .  S
Fe242       O245   2.051       .  S
Fe242       O249   2.053       .  S
Fe242       O253   2.079       .  S
Fe242       O258   2.027       .  S
Fe242       O252   1.955       .  S
Fe243       O261   2.095       .  S
Fe243       O248   2.113       .  S
Fe243       O255   2.100       .  S
Fe243       O244   2.088       .  S
Fe243       O252   1.979       .  S
O244        C251   1.276       .  A
O245        C259   1.268       .  A
O246        C251   1.267       .  A
O247        C250   1.267       .  A
O248        C260   1.276       .  A
O249        C262   1.262       .  A
C250        O255   1.278       .  A
C250        C303   1.488       .  S
C251        C312   1.489       .  S
O253        C256   1.270       .  A
O254        C256   1.270       .  A
C256        C267   1.483       .  S
O257        C262   1.269       .  A
O258        C260   1.265       .  A
C259        O261   1.273       .  A
C262        C274   1.474       .  S
C263        C290   1.488       .  S
C263        C264   1.421       .  A
C263        C268   1.416       .  A
C264        C265   1.396       .  A
C264        H269   1.083       .  S
C265        C266   1.389       .  A
C266        C267   1.401       .  A
C266        H270   1.084       .  S
C267        C268   1.410       .  A
C268        H271   1.083       .  S
C272        C291   1.489       .  S
C272        C273   1.411       .  A
C272        C277   1.424       .  A
C273        C274   1.398       .  A
C273        H278   1.083       .  S
C274        C275   1.389       .  A
C275        C276   1.409       .  A
C275        H279   1.083       .  S
C276        C277   1.411       .  A
C277        H280   1.083       .  S
Fe281       O297   2.069       .  S
Fe281       O287   2.043       .  S
Fe281       O934   2.045       .  S
Fe281       O926   2.059       .  S
Fe281       O292   1.947       .  S
Fe282       O285   2.051       .  S
Fe282       O289   2.053       .  S
Fe282       O933   2.079       .  S
Fe282       O938   2.026       .  S
Fe282       O292   1.955       .  S
Fe283       O301   2.095       .  S
Fe283       O928   2.113       .  S
Fe283       O295   2.100       .  S
Fe283       O924   2.088       .  S
Fe283       O292   1.979       .  S
O284       Fe923   2.088   1_455  S
O284        C291   1.276       .  A
O285        C299   1.268       .  A
O286       Fe921   2.059   1_455  S
O286        C291   1.267       .  A
O287        C290   1.267       .  A
O288       Fe923   2.113   1_455  S
O288        C300   1.276       .  A
O289        C302   1.262       .  A
C290        O295   1.278       .  A
O293       Fe922   2.079   1_455  S
O293        C296   1.270       .  A
O294       Fe921   2.045   1_455  S
O294        C296   1.270       .  A
C296        C625   1.483       .  S
O297        C302   1.269       .  A
O298       Fe922   2.026   1_455  S
O298        C300   1.265       .  A
C299        O301   1.273       .  A
C302        C636   1.474       .  S
C303        C304   1.416       .  A
C303        C308   1.421       .  A
C304        C305   1.410       .  A
C304        H309   1.083       .  S
C305        C616   1.483   1_545  S
C305        C306   1.401       .  A
C306        C307   1.389       .  A
C306        H310   1.084       .  S
C307        C308   1.396       .  A
C308        H311   1.083       .  S
C312        C313   1.424       .  A
C312        C317   1.411       .  A
C313        C314   1.411       .  A
C313        H318   1.083       .  S
C314        C315   1.409       .  A
C315        C316   1.389       .  A
C315        H319   1.083       .  S
C316        C622   1.474   1_545  S
C316        C317   1.398       .  A
C317        H320   1.083       .  S
Fe321       O337   2.069       .  S
Fe321       O327   2.043       .  S
Fe321       O334   2.045       .  S
Fe321       O326   2.059       .  S
Fe321       O332   1.947       .  S
Fe322       O325   2.051       .  S
Fe322       O329   2.053       .  S
Fe322       O333   2.079       .  S
Fe322       O338   2.027       .  S
Fe322       O332   1.955       .  S
Fe323       O341   2.095       .  S
Fe323       O328   2.113       .  S
Fe323       O335   2.100       .  S
Fe323       O324   2.088       .  S
Fe323       O332   1.979       .  S
O324        C331   1.276       .  A
O325        C339   1.268       .  A
O326        C331   1.267       .  A
O327        C330   1.267       .  A
O328        C340   1.276       .  A
O329        C342   1.262       .  A
C330        O335   1.278       .  A
C330        C383   1.488       .  S
C331        C392   1.489       .  S
O333        C336   1.270       .  A
O334        C336   1.270       .  A
C336        C347   1.483       .  S
O337        C342   1.269       .  A
O338        C340   1.265       .  A
C339        O341   1.273       .  A
C339        C425   1.475       .  S
C340        C436   1.497       .  S
C342        C356   1.474       .  S
C343        C370   1.488       .  S
C343        C504   1.421       .  A
C343        C348   1.416       .  A
C344        C503   1.421   1_554  A
C344        C345   1.396       .  A
C344        H349   1.083       .  S
C345        C419   1.475       .  S
C345        C346   1.389       .  A
C346        C507   1.401   1_554  A
C346        H350   1.084       .  S
C347        C506   1.401       .  A
C347        C348   1.410       .  A
C348        H351   1.083       .  S
C352        C371   1.489       .  S
C352        C513   1.424       .  A
C352        C357   1.411       .  A
C353        C512   1.424   1_554  A
C353        C354   1.411       .  A
C353        H358   1.083       .  S
C354        C420   1.497       .  S
C354        C355   1.409       .  A
C355        C516   1.389   1_554  A
C355        H359   1.083       .  S
C356        C515   1.389       .  A
C356        C357   1.398       .  A
C357        H360   1.083       .  S
Fe361       O377   2.069       .  S
Fe361       O367   2.043       .  S
Fe361      O1014   2.045   1_455  S
Fe361      O1006   2.059   1_455  S
Fe361      O1012   1.947       .  S
Fe362      O1005   2.051       .  S
Fe362       O689   2.053       .  S
Fe362       O373   2.079       .  S
Fe362       O378   2.026       .  S
Fe362       O372   1.955       .  S
Fe363      O1021   2.095       .  S
Fe363       O368   2.113       .  S
Fe363      O1015   2.100       .  S
Fe363       O364   2.088       .  S
Fe363       O372   1.979       .  S
O364        C371   1.276       .  A
O365      Fe1002   2.051       .  S
O365        C379   1.268       .  A
O366      Fe1001   2.059       .  S
O366        C371   1.267       .  A
O367        C370   1.267       .  A
O368        C380   1.276       .  A
O369       Fe682   2.053   1_565  S
C370        O375   1.278       .  A
O372      Fe1001   1.947       .  S
O373        C376   1.270       .  A
O374      Fe1001   2.045       .  S
O374        C376   1.270       .  A
O375      Fe1003   2.100       .  S
O377        C382   1.269       .  A
O378        C380   1.265       .  A
C379        O381   1.273       .  A
C379        C467   1.475       .  S
C380        C474   1.497       .  S
O381      Fe1003   2.095       .  S
C383        C384   1.416       .  A
C383        C548   1.421       .  A
C384        C385   1.410       .  A
C384        H389   1.083       .  S
C385        C546   1.401       .  A
C386        C545   1.401   1_554  A
C386        C387   1.389       .  A
C386        H390   1.084       .  S
C387        C459   1.475       .  S
C387        C388   1.396       .  A
C388        C543   1.421   1_554  A
C388        H391   1.083       .  S
C392        C393   1.411       .  A
C392        C557   1.424       .  A
C393        C394   1.398       .  A
C393        H398   1.083       .  S
C394        C555   1.389       .  A
C395        C554   1.389   1_554  A
C395        C396   1.409       .  A
C395        H399   1.083       .  S
C396        C460   1.497       .  S
C396        C397   1.411       .  A
C397        C552   1.424   1_554  A
C397        H400   1.083       .  S
Fe401       O417   2.069       .  S
Fe401       O407   2.043       .  S
Fe401       O414   2.045       .  S
Fe401       O406   2.059       .  S
Fe401       O412   1.947       .  S
Fe402       O405   2.051       .  S
Fe402       O409   2.053       .  S
Fe402       O413   2.079       .  S
Fe402       O418   2.027       .  S
Fe402       O412   1.955       .  S
Fe403       O421   2.095       .  S
Fe403       O408   2.113       .  S
Fe403       O415   2.100       .  S
Fe403       O404   2.088       .  S
Fe403       O412   1.979       .  S
O404        C411   1.276       .  A
O405        C419   1.268       .  A
O406        C411   1.267       .  A
O407        C410   1.267       .  A
O408        C420   1.276       .  A
O409        C422   1.262       .  A
C410        O415   1.278       .  A
C410        C463   1.488       .  S
C411        C472   1.489       .  S
O413        C416   1.270       .  A
O414        C416   1.270       .  A
C416        C427   1.483       .  S
O417        C422   1.269       .  A
O418        C420   1.265       .  A
C419        O421   1.273       .  A
C422        C434   1.474       .  S
C423        C450   1.488       .  S
C423        C424   1.421       .  A
C423        C428   1.416       .  A
C424        C425   1.396       .  A
C424        H429   1.083       .  S
C425        C426   1.389       .  A
C426        C427   1.401       .  A
C426        H430   1.084       .  S
C427        C428   1.410       .  A
C428        H431   1.083       .  S
C432        C451   1.489       .  S
C432        C433   1.411       .  A
C432        C437   1.424       .  A
C433        C434   1.398       .  A
C433        H438   1.083       .  S
C434        C435   1.389       .  A
C435        C436   1.409       .  A
C435        H439   1.083       .  S
C436        C437   1.411       .  A
C437        H440   1.083       .  S
Fe441       O457   2.069       .  S
Fe441       O447   2.043       .  S
Fe441      O1094   2.045       .  S
Fe441      O1086   2.059       .  S
Fe441       O452   1.947       .  S
Fe442       O445   2.051       .  S
Fe442       O449   2.053       .  S
Fe442      O1093   2.079       .  S
Fe442      O1098   2.026       .  S
Fe442       O452   1.955       .  S
Fe443       O461   2.095       .  S
Fe443      O1088   2.113       .  S
Fe443       O455   2.100       .  S
Fe443      O1084   2.088       .  S
Fe443       O452   1.979       .  S
O444      Fe1083   2.088   1_455  S
O444        C451   1.276       .  A
O445        C459   1.268       .  A
O446      Fe1081   2.059   1_455  S
O446        C451   1.267       .  A
O447        C450   1.267       .  A
O448      Fe1083   2.113   1_455  S
O448        C460   1.276       .  A
O449        C462   1.262       .  A
C450        O455   1.278       .  A
O453      Fe1082   2.079   1_455  S
O453        C456   1.270       .  A
O454      Fe1081   2.045   1_455  S
O454        C456   1.270       .  A
O457        C462   1.269       .  A
O458      Fe1082   2.026   1_455  S
O458        C460   1.265       .  A
C459        O461   1.273       .  A
C463        C464   1.416       .  A
C463        C468   1.421       .  A
C464        C465   1.410       .  A
C464        H469   1.083       .  S
C465        C466   1.401       .  A
C466        C467   1.389       .  A
C466        H470   1.084       .  S
C467        C468   1.396       .  A
C468        H471   1.083       .  S
C472        C473   1.424       .  A
C472        C477   1.411       .  A
C473        C474   1.411       .  A
C473        H478   1.083       .  S
C474        C475   1.409       .  A
C475        C476   1.389       .  A
C475        H479   1.083       .  S
C476        C477   1.398       .  A
C477        H480   1.083       .  S
Fe481       O497   2.069       .  S
Fe481       O487   2.043       .  S
Fe481       O494   2.045       .  S
Fe481       O486   2.059       .  S
Fe481       O492   1.947       .  S
Fe482       O485   2.051       .  S
Fe482       O489   2.053       .  S
Fe482       O493   2.079       .  S
Fe482       O498   2.027       .  S
Fe482       O492   1.955       .  S
Fe483       O501   2.095       .  S
Fe483       O488   2.113       .  S
Fe483       O495   2.100       .  S
Fe483       O484   2.088       .  S
Fe483       O492   1.979       .  S
O484        C491   1.276       .  A
O485        C499   1.268       .  A
O486        C491   1.267       .  A
O487        C490   1.267       .  A
O488        C500   1.276       .  A
O489        C502   1.262       .  A
C490        O495   1.278       .  A
C490        C543   1.488       .  S
C491        C552   1.489       .  S
O493        C496   1.270       .  A
O494        C496   1.270       .  A
C496        C507   1.483       .  S
O497        C502   1.269       .  A
O498        C500   1.265       .  A
C499        O501   1.273       .  A
C499        C585   1.475       .  S
C500        C596   1.497       .  S
C502        C516   1.474       .  S
C503        C530   1.488       .  S
C503        C508   1.416       .  A
C504        C505   1.396       .  A
C504        H509   1.083       .  S
C505        C579   1.475       .  S
C505        C506   1.389       .  A
C506        H510   1.084       .  S
C507        C508   1.410       .  A
C508        H511   1.083       .  S
C512        C531   1.489       .  S
C512        C517   1.411       .  A
C513        C514   1.411       .  A
C513        H518   1.083       .  S
C514        C580   1.497       .  S
C514        C515   1.409       .  A
C515        H519   1.083       .  S
C516        C517   1.398       .  A
C517        H520   1.083       .  S
Fe521       O537   2.069       .  S
Fe521       O527   2.043       .  S
Fe521      O1174   2.045   1_455  S
Fe521      O1166   2.059   1_455  S
Fe521      O1172   1.947       .  S
Fe522      O1165   2.051       .  S
Fe522       O849   2.053       .  S
Fe522       O533   2.079       .  S
Fe522       O538   2.026       .  S
Fe522       O532   1.955       .  S
Fe523      O1181   2.095       .  S
Fe523       O528   2.113       .  S
Fe523      O1175   2.100       .  S
Fe523       O524   2.088       .  S
Fe523       O532   1.979       .  S
O524        C531   1.276       .  A
O525      Fe1162   2.051       .  S
O525        C539   1.268       .  A
O526      Fe1161   2.059       .  S
O526        C531   1.267       .  A
O527        C530   1.267       .  A
O528        C540   1.276       .  A
O529       Fe842   2.053   1_565  S
C530        O535   1.278       .  A
O532      Fe1161   1.947       .  S
O533        C536   1.270       .  A
O534      Fe1161   2.045       .  S
O534        C536   1.270       .  A
O535      Fe1163   2.100       .  S
O537        C542   1.269       .  A
O538        C540   1.265       .  A
C539        O541   1.273       .  A
C539        C627   1.475       .  S
C540        C634   1.497       .  S
O541      Fe1163   2.095       .  S
C543        C544   1.416       .  A
C544        C545   1.410       .  A
C544        H549   1.083       .  S
C546        C547   1.389       .  A
C546        H550   1.084       .  S
C547        C619   1.475       .  S
C547        C548   1.396       .  A
C548        H551   1.083       .  S
C552        C553   1.411       .  A
C553        C554   1.398       .  A
C553        H558   1.083       .  S
C555        C556   1.409       .  A
C555        H559   1.083       .  S
C556        C620   1.497       .  S
C556        C557   1.411       .  A
C557        H560   1.083       .  S
Fe561       O577   2.069       .  S
Fe561       O567   2.043       .  S
Fe561       O574   2.045       .  S
Fe561       O566   2.059       .  S
Fe561       O572   1.947       .  S
Fe562       O565   2.051       .  S
Fe562       O569   2.053       .  S
Fe562       O573   2.079       .  S
Fe562       O578   2.027       .  S
Fe562       O572   1.955       .  S
Fe563       O581   2.095       .  S
Fe563       O568   2.113       .  S
Fe563       O575   2.100       .  S
Fe563       O564   2.088       .  S
Fe563       O572   1.979       .  S
O564        C571   1.276       .  A
O565        C579   1.268       .  A
O566        C571   1.267       .  A
O567        C570   1.267       .  A
O568        C580   1.276       .  A
O569        C582   1.262       .  A
C570        O575   1.278       .  A
C570        C623   1.488       .  S
C571        C632   1.489       .  S
O573        C576   1.270       .  A
O574        C576   1.270       .  A
C576        C587   1.483       .  S
O577        C582   1.269       .  A
O578        C580   1.265       .  A
C579        O581   1.273       .  A
C582        C594   1.474       .  S
C583        C610   1.488       .  S
C583        C584   1.421       .  A
C583        C588   1.416       .  A
C584        C585   1.396       .  A
C584        H589   1.083       .  S
C585        C586   1.389       .  A
C586        C587   1.401       .  A
C586        H590   1.084       .  S
C587        C588   1.410       .  A
C588        H591   1.083       .  S
C592        C611   1.489       .  S
C592        C593   1.411       .  A
C592        C597   1.424       .  A
C593        C594   1.398       .  A
C593        H598   1.083       .  S
C594        C595   1.389       .  A
C595        C596   1.409       .  A
C595        H599   1.083       .  S
C596        C597   1.411       .  A
C597        H600   1.083       .  S
Fe601       O617   2.069       .  S
Fe601       O607   2.043       .  S
Fe601      O1254   2.045       .  S
Fe601      O1246   2.059       .  S
Fe601       O612   1.947       .  S
Fe602       O605   2.051       .  S
Fe602       O609   2.053       .  S
Fe602      O1253   2.079       .  S
Fe602      O1258   2.026       .  S
Fe602       O612   1.955       .  S
Fe603       O621   2.095       .  S
Fe603      O1248   2.113       .  S
Fe603       O615   2.100       .  S
Fe603      O1244   2.088       .  S
Fe603       O612   1.979       .  S
O604      Fe1243   2.088   1_455  S
O604        C611   1.276       .  A
O605        C619   1.268       .  A
O606      Fe1241   2.059   1_455  S
O606        C611   1.267       .  A
O607        C610   1.267       .  A
O608      Fe1243   2.113   1_455  S
O608        C620   1.276       .  A
O609        C622   1.262       .  A
C610        O615   1.278       .  A
O613      Fe1242   2.079   1_455  S
O613        C616   1.270       .  A
O614      Fe1241   2.045   1_455  S
O614        C616   1.270       .  A
O617        C622   1.269       .  A
O618      Fe1242   2.026   1_455  S
O618        C620   1.265       .  A
C619        O621   1.273       .  A
C623        C624   1.416       .  A
C623        C628   1.421       .  A
C624        C625   1.410       .  A
C624        H629   1.083       .  S
C625        C626   1.401       .  A
C626        C627   1.389       .  A
C626        H630   1.084       .  S
C627        C628   1.396       .  A
C628        H631   1.083       .  S
C632        C633   1.424       .  A
C632        C637   1.411       .  A
C633        C634   1.411       .  A
C633        H638   1.083       .  S
C634        C635   1.409       .  A
C635        C636   1.389       .  A
C635        H639   1.083       .  S
C636        C637   1.398       .  A
C637        H640   1.083       .  S
Fe641       O657   2.069       .  S
Fe641       O647   2.043       .  S
Fe641       O654   2.045       .  S
Fe641       O646   2.059       .  S
Fe641       O652   1.947       .  S
Fe642       O645   2.051       .  S
Fe642       O649   2.053       .  S
Fe642       O653   2.079       .  S
Fe642       O658   2.027       .  S
Fe642       O652   1.955       .  S
Fe643       O661   2.095       .  S
Fe643       O648   2.113       .  S
Fe643       O655   2.100       .  S
Fe643       O644   2.088       .  S
Fe643       O652   1.979       .  S
O644        C651   1.276       .  A
O645        C659   1.268       .  A
O646        C651   1.267       .  A
O647        C650   1.267       .  A
O648        C660   1.276       .  A
O649        C662   1.262       .  A
C650        O655   1.278       .  A
C650        C703   1.488       .  S
C651        C712   1.489       .  S
O653        C656   1.270       .  A
O654        C656   1.270       .  A
C656        C667   1.483       .  S
O657        C662   1.269       .  A
O658        C660   1.265       .  A
C659        O661   1.273       .  A
C659        C745   1.475       .  S
C660        C756   1.497       .  S
C662        C676   1.474       .  S
C663        C690   1.488       .  S
C663        C824   1.421       .  A
C663        C668   1.416       .  A
C664        C823   1.421   1_554  A
C664        C665   1.396       .  A
C664        H669   1.083       .  S
C665        C739   1.475       .  S
C665        C666   1.389       .  A
C666        C827   1.401   1_554  A
C666        H670   1.084       .  S
C667        C826   1.401       .  A
C667        C668   1.410       .  A
C668        H671   1.083       .  S
C672        C691   1.489       .  S
C672        C833   1.424       .  A
C672        C677   1.411       .  A
C673        C832   1.424   1_554  A
C673        C674   1.411       .  A
C673        H678   1.083       .  S
C674        C740   1.497       .  S
C674        C675   1.409       .  A
C675        C836   1.389   1_554  A
C675        H679   1.083       .  S
C676        C835   1.389       .  A
C676        C677   1.398       .  A
C677        H680   1.083       .  S
Fe681       O697   2.069       .  S
Fe681       O687   2.043       .  S
Fe682       O693   2.079   1_445  S
Fe682       O698   2.026   1_455  S
Fe682       O692   1.955       .  S
Fe683       O688   2.113   1_455  S
Fe683       O684   2.088   1_455  S
Fe683       O692   1.979       .  S
O684        C691   1.276       .  A
O685        C699   1.268       .  A
O686        C691   1.267       .  A
O687        C690   1.267       .  A
O688        C700   1.276       .  A
O689       C1022   1.262       .  A
C690        O695   1.278       .  A
O693        C696   1.270       .  A
O694        C696   1.270   1_545  A
C696       C1025   1.483       .  S
O697        C702   1.269   1_545  A
O698        C700   1.265       .  A
C699        O701   1.273       .  A
C699        C787   1.475       .  S
C700        C794   1.497       .  S
C702       O1009   1.262       .  A
C702       C1034   1.474       .  S
C703        C704   1.416       .  A
C703        C868   1.421       .  A
C704        C705   1.410       .  A
C704        H709   1.083       .  S
C705       C1016   1.483       .  S
C705        C866   1.401       .  A
C706        C865   1.401   1_554  A
C706        C707   1.389       .  A
C706        H710   1.084       .  S
C707        C779   1.475       .  S
C707        C708   1.396       .  A
C708        C863   1.421   1_554  A
C708        H711   1.083       .  S
C712        C713   1.411       .  A
C712        C877   1.424       .  A
C713        C714   1.398       .  A
C713        H718   1.083       .  S
C714       C1022   1.474       .  S
C714        C875   1.389       .  A
C715        C874   1.389   1_554  A
C715        C716   1.409       .  A
C715        H719   1.083       .  S
C716        C780   1.497       .  S
C716        C717   1.411       .  A
C717        C872   1.424   1_554  A
C717        H720   1.083       .  S
Fe721       O737   2.069       .  S
Fe721       O727   2.043       .  S
Fe721       O734   2.045       .  S
Fe721       O726   2.059       .  S
Fe721       O732   1.947       .  S
Fe722       O725   2.051       .  S
Fe722       O729   2.053       .  S
Fe722       O733   2.079       .  S
Fe722       O738   2.027       .  S
Fe722       O732   1.955       .  S
Fe723       O741   2.095       .  S
Fe723       O728   2.113       .  S
Fe723       O735   2.100       .  S
Fe723       O724   2.088       .  S
Fe723       O732   1.979       .  S
O724        C731   1.276       .  A
O725        C739   1.268       .  A
O726        C731   1.267       .  A
O727        C730   1.267       .  A
O728        C740   1.276       .  A
O729        C742   1.262       .  A
C730        O735   1.278       .  A
C730        C783   1.488       .  S
C731        C792   1.489       .  S
O733        C736   1.270       .  A
O734        C736   1.270       .  A
C736        C747   1.483       .  S
O737        C742   1.269       .  A
O738        C740   1.265       .  A
C739        O741   1.273       .  A
C742        C754   1.474       .  S
C743        C770   1.488       .  S
C743        C744   1.421       .  A
C743        C748   1.416       .  A
C744        C745   1.396       .  A
C744        H749   1.083       .  S
C745        C746   1.389       .  A
C746        C747   1.401       .  A
C746        H750   1.084       .  S
C747        C748   1.410       .  A
C748        H751   1.083       .  S
C752        C771   1.489       .  S
C752        C753   1.411       .  A
C752        C757   1.424       .  A
C753        C754   1.398       .  A
C753        H758   1.083       .  S
C754        C755   1.389       .  A
C755        C756   1.409       .  A
C755        H759   1.083       .  S
C756        C757   1.411       .  A
C757        H760   1.083       .  S
Fe761       O777   2.069       .  S
Fe761       O767   2.043       .  S
Fe761       O772   1.947       .  S
Fe762       O765   2.051       .  S
Fe762       O769   2.053       .  S
Fe762       O772   1.955       .  S
Fe763       O781   2.095       .  S
Fe763       O775   2.100       .  S
Fe763       O772   1.979       .  S
O764        C771   1.276       .  A
O765        C779   1.268       .  A
O766        C771   1.267       .  A
O767        C770   1.267       .  A
O768        C780   1.276       .  A
O769        C782   1.262       .  A
C770        O775   1.278       .  A
O773        C776   1.270       .  A
O774        C776   1.270       .  A
C776       C1105   1.483       .  S
O777        C782   1.269       .  A
O778        C780   1.265       .  A
C779        O781   1.273       .  A
C782       C1116   1.474       .  S
C783        C784   1.416       .  A
C783        C788   1.421       .  A
C784        C785   1.410       .  A
C784        H789   1.083       .  S
C785       C1096   1.483   1_545  S
C785        C786   1.401       .  A
C786        C787   1.389       .  A
C786        H790   1.084       .  S
C787        C788   1.396       .  A
C788        H791   1.083       .  S
C792        C793   1.424       .  A
C792        C797   1.411       .  A
C793        C794   1.411       .  A
C793        H798   1.083       .  S
C794        C795   1.409       .  A
C795        C796   1.389       .  A
C795        H799   1.083       .  S
C796       C1102   1.474   1_545  S
C796        C797   1.398       .  A
C797        H800   1.083       .  S
Fe801       O817   2.069       .  S
Fe801       O807   2.043       .  S
Fe801       O814   2.045       .  S
Fe801       O806   2.059       .  S
Fe801       O812   1.947       .  S
Fe802       O805   2.051       .  S
Fe802       O809   2.053       .  S
Fe802       O813   2.079       .  S
Fe802       O818   2.027       .  S
Fe802       O812   1.955       .  S
Fe803       O821   2.095       .  S
Fe803       O808   2.113       .  S
Fe803       O815   2.100       .  S
Fe803       O804   2.088       .  S
Fe803       O812   1.979       .  S
O804        C811   1.276       .  A
O805        C819   1.268       .  A
O806        C811   1.267       .  A
O807        C810   1.267       .  A
O808        C820   1.276       .  A
O809        C822   1.262       .  A
C810        O815   1.278       .  A
C810        C863   1.488       .  S
C811        C872   1.489       .  S
O813        C816   1.270       .  A
O814        C816   1.270       .  A
C816        C827   1.483       .  S
O817        C822   1.269       .  A
O818        C820   1.265       .  A
C819        O821   1.273       .  A
C819        C905   1.475       .  S
C820        C916   1.497       .  S
C822        C836   1.474       .  S
C823        C850   1.488       .  S
C823        C828   1.416       .  A
C824        C825   1.396       .  A
C824        H829   1.083       .  S
C825        C899   1.475       .  S
C825        C826   1.389       .  A
C826        H830   1.084       .  S
C827        C828   1.410       .  A
C828        H831   1.083       .  S
C832        C851   1.489       .  S
C832        C837   1.411       .  A
C833        C834   1.411       .  A
C833        H838   1.083       .  S
C834        C900   1.497       .  S
C834        C835   1.409       .  A
C835        H839   1.083       .  S
C836        C837   1.398       .  A
C837        H840   1.083       .  S
Fe841       O857   2.069       .  S
Fe841       O847   2.043       .  S
Fe842       O853   2.079   1_445  S
Fe842       O858   2.026   1_455  S
Fe842       O852   1.955       .  S
Fe843       O848   2.113   1_455  S
Fe843       O844   2.088   1_455  S
Fe843       O852   1.979       .  S
O844        C851   1.276       .  A
O845        C859   1.268       .  A
O846        C851   1.267       .  A
O847        C850   1.267       .  A
O848        C860   1.276       .  A
O849       C1182   1.262       .  A
C850        O855   1.278       .  A
O853        C856   1.270       .  A
O854        C856   1.270   1_545  A
C856       C1185   1.483       .  S
O857        C862   1.269   1_545  A
O858        C860   1.265       .  A
C859        O861   1.273       .  A
C859        C947   1.475       .  S
C860        C954   1.497       .  S
C862       O1169   1.262       .  A
C862       C1194   1.474       .  S
C863        C864   1.416       .  A
C864        C865   1.410       .  A
C864        H869   1.083       .  S
C865       C1176   1.483       .  S
C866        C867   1.389       .  A
C866        H870   1.084       .  S
C867        C939   1.475       .  S
C867        C868   1.396       .  A
C868        H871   1.083       .  S
C872        C873   1.411       .  A
C873        C874   1.398       .  A
C873        H878   1.083       .  S
C874       C1182   1.474       .  S
C875        C876   1.409       .  A
C875        H879   1.083       .  S
C876        C940   1.497       .  S
C876        C877   1.411       .  A
C877        H880   1.083       .  S
Fe881       O897   2.069       .  S
Fe881       O887   2.043       .  S
Fe881       O894   2.045       .  S
Fe881       O886   2.059       .  S
Fe881       O892   1.947       .  S
Fe882       O885   2.051       .  S
Fe882       O889   2.053       .  S
Fe882       O893   2.079       .  S
Fe882       O898   2.027       .  S
Fe882       O892   1.955       .  S
Fe883       O901   2.095       .  S
Fe883       O888   2.113       .  S
Fe883       O895   2.100       .  S
Fe883       O884   2.088       .  S
Fe883       O892   1.979       .  S
O884        C891   1.276       .  A
O885        C899   1.268       .  A
O886        C891   1.267       .  A
O887        C890   1.267       .  A
O888        C900   1.276       .  A
O889        C902   1.262       .  A
C890        O895   1.278       .  A
C890        C943   1.488       .  S
C891        C952   1.489       .  S
O893        C896   1.270       .  A
O894        C896   1.270       .  A
C896        C907   1.483       .  S
O897        C902   1.269       .  A
O898        C900   1.265       .  A
C899        O901   1.273       .  A
C902        C914   1.474       .  S
C903        C930   1.488       .  S
C903        C904   1.421       .  A
C903        C908   1.416       .  A
C904        C905   1.396       .  A
C904        H909   1.083       .  S
C905        C906   1.389       .  A
C906        C907   1.401       .  A
C906        H910   1.084       .  S
C907        C908   1.410       .  A
C908        H911   1.083       .  S
C912        C931   1.489       .  S
C912        C913   1.411       .  A
C912        C917   1.424       .  A
C913        C914   1.398       .  A
C913        H918   1.083       .  S
C914        C915   1.389       .  A
C915        C916   1.409       .  A
C915        H919   1.083       .  S
C916        C917   1.411       .  A
C917        H920   1.083       .  S
Fe921       O937   2.069       .  S
Fe921       O927   2.043       .  S
Fe921       O932   1.947       .  S
Fe922       O925   2.051       .  S
Fe922       O929   2.053       .  S
Fe922       O932   1.955       .  S
Fe923       O941   2.095       .  S
Fe923       O935   2.100       .  S
Fe923       O932   1.979       .  S
O924        C931   1.276       .  A
O925        C939   1.268       .  A
O926        C931   1.267       .  A
O927        C930   1.267       .  A
O928        C940   1.276       .  A
O929        C942   1.262       .  A
C930        O935   1.278       .  A
O933        C936   1.270       .  A
O934        C936   1.270       .  A
C936       C1265   1.483       .  S
O937        C942   1.269       .  A
O938        C940   1.265       .  A
C939        O941   1.273       .  A
C942       C1276   1.474       .  S
C943        C944   1.416       .  A
C943        C948   1.421       .  A
C944        C945   1.410       .  A
C944        H949   1.083       .  S
C945       C1256   1.483   1_545  S
C945        C946   1.401       .  A
C946        C947   1.389       .  A
C946        H950   1.084       .  S
C947        C948   1.396       .  A
C948        H951   1.083       .  S
C952        C953   1.424       .  A
C952        C957   1.411       .  A
C953        C954   1.411       .  A
C953        H958   1.083       .  S
C954        C955   1.409       .  A
C955        C956   1.389       .  A
C955        H959   1.083       .  S
C956       C1262   1.474   1_545  S
C956        C957   1.398       .  A
C957        H960   1.083       .  S
Fe961       O977   2.069       .  S
Fe961       O967   2.043       .  S
Fe961       O974   2.045       .  S
Fe961       O966   2.059       .  S
Fe961       O972   1.947       .  S
Fe962       O965   2.051       .  S
Fe962       O969   2.053       .  S
Fe962       O973   2.079       .  S
Fe962       O978   2.027       .  S
Fe962       O972   1.955       .  S
Fe963       O981   2.095       .  S
Fe963       O968   2.113       .  S
Fe963       O975   2.100       .  S
Fe963       O964   2.088       .  S
Fe963       O972   1.979       .  S
O964        C971   1.276       .  A
O965        C979   1.268       .  A
O966        C971   1.267       .  A
O967        C970   1.267       .  A
O968        C980   1.276       .  A
O969        C982   1.262       .  A
C970        O975   1.278       .  A
C970       C1023   1.488       .  S
C971       C1032   1.489       .  S
O973        C976   1.270       .  A
O974        C976   1.270       .  A
C976        C987   1.483       .  S
O977        C982   1.269       .  A
O978        C980   1.265       .  A
C979        O981   1.273       .  A
C979       C1065   1.475       .  S
C980       C1076   1.497       .  S
C982        C996   1.474       .  S
C983       C1010   1.488       .  S
C983       C1144   1.421       .  A
C983        C988   1.416       .  A
C984       C1143   1.421   1_554  A
C984        C985   1.396       .  A
C984        H989   1.083       .  S
C985       C1059   1.475       .  S
C985        C986   1.389       .  A
C986       C1147   1.401   1_554  A
C986        H990   1.084       .  S
C987       C1146   1.401       .  A
C987        C988   1.410       .  A
C988        H991   1.083       .  S
C992       C1011   1.489       .  S
C992       C1153   1.424       .  A
C992        C997   1.411       .  A
C993       C1152   1.424   1_554  A
C993        C994   1.411       .  A
C993        H998   1.083       .  S
C994       C1060   1.497       .  S
C994        C995   1.409       .  A
C995       C1156   1.389   1_554  A
C995        H999   1.083       .  S
C996       C1155   1.389       .  A
C996        C997   1.398       .  A
C997       H1000   1.083       .  S
Fe1001     O1017   2.069       .  S
Fe1001     O1007   2.043       .  S
Fe1002     O1013   2.079   1_455  S
Fe1002     O1018   2.026   1_455  S
Fe1002     O1012   1.955       .  S
Fe1003     O1008   2.113   1_455  S
Fe1003     O1004   2.088   1_455  S
Fe1003     O1012   1.979       .  S
O1004      C1011   1.276       .  A
O1005      C1019   1.268       .  A
O1006      C1011   1.267       .  A
O1007      C1010   1.267       .  A
O1008      C1020   1.276       .  A
C1010      O1015   1.278       .  A
O1013      C1016   1.270       .  A
O1014      C1016   1.270       .  A
O1017      C1022   1.269       .  A
O1018      C1020   1.265       .  A
C1019      O1021   1.273       .  A
C1019      C1107   1.475       .  S
C1020      C1114   1.497       .  S
C1023      C1024   1.416       .  A
C1023      C1188   1.421       .  A
C1024      C1025   1.410       .  A
C1024      H1029   1.083       .  S
C1025      C1186   1.401       .  A
C1026      C1185   1.401   1_554  A
C1026      C1027   1.389       .  A
C1026      H1030   1.084       .  S
C1027      C1099   1.475       .  S
C1027      C1028   1.396       .  A
C1028      C1183   1.421   1_554  A
C1028      H1031   1.083       .  S
C1032      C1033   1.411       .  A
C1032      C1197   1.424       .  A
C1033      C1034   1.398       .  A
C1033      H1038   1.083       .  S
C1034      C1195   1.389       .  A
C1035      C1194   1.389   1_554  A
C1035      C1036   1.409       .  A
C1035      H1039   1.083       .  S
C1036      C1100   1.497       .  S
C1036      C1037   1.411       .  A
C1037      C1192   1.424   1_554  A
C1037      H1040   1.083       .  S
Fe1041     O1057   2.069       .  S
Fe1041     O1047   2.043       .  S
Fe1041     O1054   2.045       .  S
Fe1041     O1046   2.059       .  S
Fe1041     O1052   1.947       .  S
Fe1042     O1045   2.051       .  S
Fe1042     O1049   2.053       .  S
Fe1042     O1053   2.079       .  S
Fe1042     O1058   2.027       .  S
Fe1042     O1052   1.955       .  S
Fe1043     O1061   2.095       .  S
Fe1043     O1048   2.113       .  S
Fe1043     O1055   2.100       .  S
Fe1043     O1044   2.088       .  S
Fe1043     O1052   1.979       .  S
O1044      C1051   1.276       .  A
O1045      C1059   1.268       .  A
O1046      C1051   1.267       .  A
O1047      C1050   1.267       .  A
O1048      C1060   1.276       .  A
O1049      C1062   1.262       .  A
C1050      O1055   1.278       .  A
C1050      C1103   1.488       .  S
C1051      C1112   1.489       .  S
O1053      C1056   1.270       .  A
O1054      C1056   1.270       .  A
C1056      C1067   1.483       .  S
O1057      C1062   1.269       .  A
O1058      C1060   1.265       .  A
C1059      O1061   1.273       .  A
C1062      C1074   1.474       .  S
C1063      C1090   1.488       .  S
C1063      C1064   1.421       .  A
C1063      C1068   1.416       .  A
C1064      C1065   1.396       .  A
C1064      H1069   1.083       .  S
C1065      C1066   1.389       .  A
C1066      C1067   1.401       .  A
C1066      H1070   1.084       .  S
C1067      C1068   1.410       .  A
C1068      H1071   1.083       .  S
C1072      C1091   1.489       .  S
C1072      C1073   1.411       .  A
C1072      C1077   1.424       .  A
C1073      C1074   1.398       .  A
C1073      H1078   1.083       .  S
C1074      C1075   1.389       .  A
C1075      C1076   1.409       .  A
C1075      H1079   1.083       .  S
C1076      C1077   1.411       .  A
C1077      H1080   1.083       .  S
Fe1081     O1097   2.069       .  S
Fe1081     O1087   2.043       .  S
Fe1081     O1092   1.947       .  S
Fe1082     O1085   2.051       .  S
Fe1082     O1089   2.053       .  S
Fe1082     O1092   1.955       .  S
Fe1083     O1101   2.095       .  S
Fe1083     O1095   2.100       .  S
Fe1083     O1092   1.979       .  S
O1084      C1091   1.276       .  A
O1085      C1099   1.268       .  A
O1086      C1091   1.267       .  A
O1087      C1090   1.267       .  A
O1088      C1100   1.276       .  A
O1089      C1102   1.262       .  A
C1090      O1095   1.278       .  A
O1093      C1096   1.270       .  A
O1094      C1096   1.270       .  A
O1097      C1102   1.269       .  A
O1098      C1100   1.265       .  A
C1099      O1101   1.273       .  A
C1103      C1104   1.416       .  A
C1103      C1108   1.421       .  A
C1104      C1105   1.410       .  A
C1104      H1109   1.083       .  S
C1105      C1106   1.401       .  A
C1106      C1107   1.389       .  A
C1106      H1110   1.084       .  S
C1107      C1108   1.396       .  A
C1108      H1111   1.083       .  S
C1112      C1113   1.424       .  A
C1112      C1117   1.411       .  A
C1113      C1114   1.411       .  A
C1113      H1118   1.083       .  S
C1114      C1115   1.409       .  A
C1115      C1116   1.389       .  A
C1115      H1119   1.083       .  S
C1116      C1117   1.398       .  A
C1117      H1120   1.083       .  S
Fe1121     O1137   2.069       .  S
Fe1121     O1127   2.043       .  S
Fe1121     O1134   2.045       .  S
Fe1121     O1126   2.059       .  S
Fe1121     O1132   1.947       .  S
Fe1122     O1125   2.051       .  S
Fe1122     O1129   2.053       .  S
Fe1122     O1133   2.079       .  S
Fe1122     O1138   2.027       .  S
Fe1122     O1132   1.955       .  S
Fe1123     O1141   2.095       .  S
Fe1123     O1128   2.113       .  S
Fe1123     O1135   2.100       .  S
Fe1123     O1124   2.088       .  S
Fe1123     O1132   1.979       .  S
O1124      C1131   1.276       .  A
O1125      C1139   1.268       .  A
O1126      C1131   1.267       .  A
O1127      C1130   1.267       .  A
O1128      C1140   1.276       .  A
O1129      C1142   1.262       .  A
C1130      O1135   1.278       .  A
C1130      C1183   1.488       .  S
C1131      C1192   1.489       .  S
O1133      C1136   1.270       .  A
O1134      C1136   1.270       .  A
C1136      C1147   1.483       .  S
O1137      C1142   1.269       .  A
O1138      C1140   1.265       .  A
C1139      O1141   1.273       .  A
C1139      C1225   1.475       .  S
C1140      C1236   1.497       .  S
C1142      C1156   1.474       .  S
C1143      C1170   1.488       .  S
C1143      C1148   1.416       .  A
C1144      C1145   1.396       .  A
C1144      H1149   1.083       .  S
C1145      C1219   1.475       .  S
C1145      C1146   1.389       .  A
C1146      H1150   1.084       .  S
C1147      C1148   1.410       .  A
C1148      H1151   1.083       .  S
C1152      C1171   1.489       .  S
C1152      C1157   1.411       .  A
C1153      C1154   1.411       .  A
C1153      H1158   1.083       .  S
C1154      C1220   1.497       .  S
C1154      C1155   1.409       .  A
C1155      H1159   1.083       .  S
C1156      C1157   1.398       .  A
C1157      H1160   1.083       .  S
Fe1161     O1177   2.069       .  S
Fe1161     O1167   2.043       .  S
Fe1162     O1173   2.079   1_455  S
Fe1162     O1178   2.026   1_455  S
Fe1162     O1172   1.955       .  S
Fe1163     O1168   2.113   1_455  S
Fe1163     O1164   2.088   1_455  S
Fe1163     O1172   1.979       .  S
O1164      C1171   1.276       .  A
O1165      C1179   1.268       .  A
O1166      C1171   1.267       .  A
O1167      C1170   1.267       .  A
O1168      C1180   1.276       .  A
C1170      O1175   1.278       .  A
O1173      C1176   1.270       .  A
O1174      C1176   1.270       .  A
O1177      C1182   1.269       .  A
O1178      C1180   1.265       .  A
C1179      O1181   1.273       .  A
C1179      C1267   1.475       .  S
C1180      C1274   1.497       .  S
C1183      C1184   1.416       .  A
C1184      C1185   1.410       .  A
C1184      H1189   1.083       .  S
C1186      C1187   1.389       .  A
C1186      H1190   1.084       .  S
C1187      C1259   1.475       .  S
C1187      C1188   1.396       .  A
C1188      H1191   1.083       .  S
C1192      C1193   1.411       .  A
C1193      C1194   1.398       .  A
C1193      H1198   1.083       .  S
C1195      C1196   1.409       .  A
C1195      H1199   1.083       .  S
C1196      C1260   1.497       .  S
C1196      C1197   1.411       .  A
C1197      H1200   1.083       .  S
Fe1201     O1217   2.069       .  S
Fe1201     O1207   2.043       .  S
Fe1201     O1214   2.045       .  S
Fe1201     O1206   2.059       .  S
Fe1201     O1212   1.947       .  S
Fe1202     O1205   2.051       .  S
Fe1202     O1209   2.053       .  S
Fe1202     O1213   2.079       .  S
Fe1202     O1218   2.027       .  S
Fe1202     O1212   1.955       .  S
Fe1203     O1221   2.095       .  S
Fe1203     O1208   2.113       .  S
Fe1203     O1215   2.100       .  S
Fe1203     O1204   2.088       .  S
Fe1203     O1212   1.979       .  S
O1204      C1211   1.276       .  A
O1205      C1219   1.268       .  A
O1206      C1211   1.267       .  A
O1207      C1210   1.267       .  A
O1208      C1220   1.276       .  A
O1209      C1222   1.262       .  A
C1210      O1215   1.278       .  A
C1210      C1263   1.488       .  S
C1211      C1272   1.489       .  S
O1213      C1216   1.270       .  A
O1214      C1216   1.270       .  A
C1216      C1227   1.483       .  S
O1217      C1222   1.269       .  A
O1218      C1220   1.265       .  A
C1219      O1221   1.273       .  A
C1222      C1234   1.474       .  S
C1223      C1250   1.488       .  S
C1223      C1224   1.421       .  A
C1223      C1228   1.416       .  A
C1224      C1225   1.396       .  A
C1224      H1229   1.083       .  S
C1225      C1226   1.389       .  A
C1226      C1227   1.401       .  A
C1226      H1230   1.084       .  S
C1227      C1228   1.410       .  A
C1228      H1231   1.083       .  S
C1232      C1251   1.489       .  S
C1232      C1233   1.411       .  A
C1232      C1237   1.424       .  A
C1233      C1234   1.398       .  A
C1233      H1238   1.083       .  S
C1234      C1235   1.389       .  A
C1235      C1236   1.409       .  A
C1235      H1239   1.083       .  S
C1236      C1237   1.411       .  A
C1237      H1240   1.083       .  S
Fe1241     O1257   2.069       .  S
Fe1241     O1247   2.043       .  S
Fe1241     O1252   1.947       .  S
Fe1242     O1245   2.051       .  S
Fe1242     O1249   2.053       .  S
Fe1242     O1252   1.955       .  S
Fe1243     O1261   2.095       .  S
Fe1243     O1255   2.100       .  S
Fe1243     O1252   1.979       .  S
O1244      C1251   1.276       .  A
O1245      C1259   1.268       .  A
O1246      C1251   1.267       .  A
O1247      C1250   1.267       .  A
O1248      C1260   1.276       .  A
O1249      C1262   1.262       .  A
C1250      O1255   1.278       .  A
O1253      C1256   1.270       .  A
O1254      C1256   1.270       .  A
O1257      C1262   1.269       .  A
O1258      C1260   1.265       .  A
C1259      O1261   1.273       .  A
C1263      C1264   1.416       .  A
C1263      C1268   1.421       .  A
C1264      C1265   1.410       .  A
C1264      H1269   1.083       .  S
C1265      C1266   1.401       .  A
C1266      C1267   1.389       .  A
C1266      H1270   1.084       .  S
C1267      C1268   1.396       .  A
C1268      H1271   1.083       .  S
C1272      C1273   1.424       .  A
C1272      C1277   1.411       .  A
C1273      C1274   1.411       .  A
C1273      H1278   1.083       .  S
C1274      C1275   1.409       .  A
C1275      C1276   1.389       .  A
C1275      H1279   1.083       .  S
C1276      C1277   1.398       .  A
C1277      H1280   1.083       .  S
