geometry optimzed in LAMMPS
_audit_creation_date              2020-11-30 
_audit_creation_method            'lammps2cif' 
_symmetry_space_group_name_H-M    'P1' 
_symmetry_Int_Tables_number       1 
_symmetry_cell_setting            triclinic 
loop_ 
_symmetry_equiv_pos_as_xyz 
  x,y,z 
_cell_length_a                    43.51632073 
_cell_length_b                    43.579277665598845 
_cell_length_c                    47.92722885728467 
_cell_angle_alpha                 89.9147540953479 
_cell_angle_beta                  90.3166477651304 
_cell_angle_gamma                 89.98715235877374 
loop_ 
_atom_site_label 
_atom_site_type_symbol 
_atom_site_fract_x 
_atom_site_fract_y 
_atom_site_fract_z 
_atom_site_charge 
O1          O  0.02444188  0.50318606  0.21020889    -0.72000
O2          O  0.02596033  0.00284562  0.12930283    -0.72300
O3          O  0.02670631  0.04701941  0.16829795    -0.72100
O4          O  0.02420640  0.45972120  0.17062802    -0.72100
O5          O  0.47663029  0.46168555  0.16830979    -0.72100
O6          O  0.47798058  0.04834836  0.16839031    -0.72100
O7          O  0.47917048  0.50509087  0.12879364    -0.72000
O8          O  0.47749544  0.00662264  0.20958028    -0.72200
V9          V  0.02502831  0.00349374  0.16890359     1.35200
V10         V  0.47837091  0.00485470  0.17001919     1.35200
C11         C  0.50237821  0.00642421  0.22330189     0.77200
C12         C  0.50221310  0.00305198  0.11707088     0.77300
C13         C  0.00203227  0.06231634  0.16769021     0.77100
C14         C  0.99889795  0.44544477  0.17021325     0.77100
O15         O  0.02472792  0.25193156  0.20787341    -0.72000
O16         O  0.02626559  0.25410504  0.12888152    -0.72300
O17         O  0.02595113  0.29672508  0.16934346    -0.72100
O18         O  0.02479441  0.20969624  0.16750961    -0.72100
O19         O  0.47541020  0.21084616  0.16474168    -0.72100
O20         O  0.47660997  0.29805416  0.16544869    -0.72100
O21         O  0.47583626  0.25476358  0.12544603    -0.72000
O22         O  0.47607257  0.25416408  0.20479268    -0.72200
V23         V  0.02445757  0.25319973  0.16837408     1.35200
V24         V  0.47691478  0.25444610  0.16510347     1.35200
C25         C  0.50110375  0.25346242  0.21834550     0.77200
C26         C  0.50083723  0.25438111  0.11215610     0.77300
C27         C  0.00130493  0.31207301  0.16869118     0.77100
C28         C  0.99963712  0.19518388  0.16769162     0.77100
O29         O  0.22833308  0.99662261  0.20687504    -0.72000
O30         O  0.22558358  0.49956909  0.12764476    -0.72300
O31         O  0.22571934  0.45544718  0.16663170    -0.72100
O32         O  0.22703079  0.04176404  0.16853123    -0.72100
O33         O  0.27667345  0.04187752  0.16546526    -0.76900
O34         O  0.27556558  0.45440378  0.16628095    -0.72100
O35         O  0.27539790  0.99764649  0.12659995    -0.72000
O36         O  0.27756499  0.49810012  0.20606553    -0.72200
V37         V  0.22765842  0.49894244  0.16718271     1.35200
V38         V  0.27557655  0.49796973  0.16641369     1.35200
C39         C  0.25291438  0.49827205  0.21990141     0.77200
C40         C  0.25017033  0.49874421  0.11379601     0.77300
C41         C  0.25033189  0.44004470  0.16596130     0.77100
C42         C  0.25187253  0.05679360  0.16711486     0.77100
O43         O  0.22239414  0.24738370  0.20639030    -0.72000
O44         O  0.22038305  0.24923004  0.12707620    -0.72300
O45         O  0.22182643  0.20499935  0.16604978    -0.72100
O46         O  0.22090743  0.29197203  0.16746683    -0.72100
O47         O  0.27064956  0.29250822  0.16486470    -0.72100
O48         O  0.27157039  0.20540266  0.16709826    -0.72100
O49         O  0.27030967  0.24781222  0.12656562    -0.72000
O50         O  0.27222905  0.25019382  0.20556534    -0.72200
V51         V  0.22232193  0.24844658  0.16674132     1.35200
V52         V  0.27023193  0.24896767  0.16604814     1.35200
C53         C  0.24769393  0.24855275  0.21943744     0.77200
C54         C  0.24511522  0.24839635  0.11338471     0.77300
C55         C  0.24677557  0.19021052  0.16653420     0.77100
C56         C  0.24559153  0.30715597  0.16611359     0.77100
O57         O  0.50057107  0.02889448  0.35801938    -0.72000
O58         O  0.00043084  0.02746645  0.43559975    -0.72300
O59         O  0.04443532  0.02782369  0.39650228    -0.72100
O60         O  0.45679839  0.02710139  0.39713605    -0.72100
O61         O  0.45633326  0.47641151  0.39421353    -0.72100
O62         O  0.04262322  0.47763168  0.39708163    -0.72100
O63         O  0.49920424  0.47511072  0.43470934    -0.72000
O64         O  0.99964603  0.47810128  0.35695350    -0.72200
V65         V  0.50029998  0.02646316  0.39757604     1.35200
V66         V  0.50000098  0.47761205  0.39516177     1.35200
C67         C  0.50216140  0.00448217  0.34391915     0.77200
C68         C  0.49933793  0.00069151  0.44992102     0.77300
C69         C  0.05908096  0.00279206  0.39657961     0.77100
C70         C  0.44202022  0.00220839  0.39587023     0.77100
O71         O  0.50058270  0.27890109  0.35280012    -0.72000
O72         O  0.00441919  0.27472885  0.43396569    -0.72300
O73         O  0.04616477  0.27345691  0.39290612    -0.72100
O74         O  0.45900951  0.27877034  0.39390265    -0.72100
O75         O  0.45812167  0.22907324  0.39125384    -0.72100
O76         O  0.04496352  0.22374634  0.39422852    -0.72100
O77         O  0.50160237  0.22720180  0.43116769    -0.72000
O78         O  0.00074042  0.22480035  0.35490917    -0.72200
V79         V  0.50250602  0.27704015  0.39244605     1.35200
V80         V  0.50169608  0.22917340  0.39161955     1.35200
C81         C  0.50057563  0.25419599  0.33898251     0.77200
C82         C  0.50317110  0.25173451  0.44509042     0.77300
C83         C  0.06051462  0.24820974  0.39342630     0.77100
C84         C  0.44367978  0.25419098  0.39286117     0.77100
O85         O  0.25111564  0.02091174  0.35315831    -0.72000
O86         O  0.25030037  0.02398000  0.43240771    -0.72300
O87         O  0.29412225  0.02230848  0.39329995    -0.72100
O88         O  0.20704084  0.02249323  0.39236089    -0.72100
O89         O  0.20551528  0.47333635  0.39407012    -0.72100
O90         O  0.29253968  0.47272301  0.39360589    -0.72100
O91         O  0.24934483  0.47335719  0.43339837    -0.72000
O92         O  0.24853004  0.47271644  0.35418176    -0.72200
V93         V  0.25060951  0.02146795  0.39280172     1.35200
V94         V  0.24900797  0.47401194  0.39378758     1.35200
C95         C  0.25138575  0.99554027  0.34034052     0.77200
C96         C  0.25012307  0.99949591  0.44655792     0.77300
C97         C  0.30898408  0.99738824  0.39408063     0.77100
C98         C  0.19205550  0.99764224  0.39309464     0.77100
O99         O  0.25278064  0.27573436  0.35320302    -0.72000
O100        O  0.25205546  0.27711783  0.43231596    -0.72300
O101        O  0.29594451  0.27645149  0.39327932    -0.72100
O102        O  0.20879676  0.27621640  0.39217521    -0.72100
O103        O  0.20881060  0.22651923  0.39398886    -0.72100
O104        O  0.29593913  0.22665605  0.39271868    -0.72100
O105        O  0.25329147  0.22725822  0.43305784    -0.72000
O106        O  0.25144226  0.22597138  0.35376548    -0.72200
V107        V  0.25236938  0.27540926  0.39276084     1.35200
V108        V  0.25238428  0.22754758  0.39340322     1.35200
C109        C  0.25221770  0.25070841  0.33994464     0.77200
C110        C  0.25279970  0.25243349  0.44613561     0.77300
C111        C  0.31082102  0.25154515  0.39272893     0.77100
C112        C  0.19384771  0.25137218  0.39285290     0.77100
O113        O  0.04228330  0.02489093  0.53211180    -0.72000
O114        O  0.45498527  0.02357748  0.53434742    -0.72300
O115        O  0.99909217  0.02377556  0.57221142    -0.72100
O116        O  0.49773056  0.02465946  0.49410265    -0.72100
O117        O  0.99901880  0.47543089  0.49334631    -0.72100
O118        O  0.49622166  0.47109800  0.57163277    -0.72100
O119        O  0.45427576  0.47143940  0.53031482    -0.72000
O120        O  0.04107055  0.47459927  0.53454893    -0.72200
V121        V  0.99856644  0.02383240  0.53261643     1.35200
V122        V  0.49782748  0.47302420  0.53200909     1.35200
C123        C  0.05599594  0.49945880  0.53404807     0.77200
C124        C  0.43894426  0.49602155  0.53146692     0.77300
C125        C  0.49643725  0.49579490  0.58543991     0.77100
C126        C  0.49838584  0.49845602  0.47940368     0.77100
O127        O  0.04736026  0.27543200  0.53142877    -0.72000
O128        O  0.46000793  0.27417125  0.52888389    -0.72300
O129        O  0.00356349  0.27483199  0.57061069    -0.72100
O130        O  0.50376024  0.27538061  0.48962831    -0.72100
O131        O  0.00356328  0.22491642  0.49152528    -0.72100
O132        O  0.50366872  0.22337300  0.56796323    -0.72100
O133        O  0.46002624  0.22441473  0.52803440    -0.72000
O134        O  0.04801288  0.22562503  0.53037795    -0.72200
V135        V  0.00378393  0.27381667  0.53105012     1.35200
V136        V  0.50356786  0.22538093  0.52826180     1.35200
C137        C  0.06253886  0.25072134  0.53055525     0.77200
C138        C  0.44509150  0.24925878  0.52828472     0.77300
C139        C  0.50372490  0.24806933  0.58177928     0.77100
C140        C  0.50354296  0.25083884  0.47565417     0.77100
O141        O  0.29227940  0.02527216  0.53213067    -0.72000
O142        O  0.20515138  0.02564558  0.52815205    -0.72300
O143        O  0.24681723  0.02534537  0.56979180    -0.72100
O144        O  0.25047350  0.02526306  0.49039233    -0.72100
O145        O  0.24697349  0.47363555  0.49068106    -0.72100
O146        O  0.24710210  0.47344407  0.56984316    -0.72100
O147        O  0.20333182  0.47420503  0.53032049    -0.72000
O148        O  0.29072223  0.47310726  0.53035966    -0.72200
V149        V  0.24869903  0.02443931  0.53010096     1.35200
V150        V  0.24703497  0.47455461  0.53026965     1.35200
C151        C  0.30584310  0.49785404  0.53184882     0.77200
C152        C  0.18879016  0.49932591  0.52916692     0.77300
C153        C  0.24617528  0.49832064  0.58330079     0.77100
C154        C  0.24847925  0.49853337  0.47722117     0.77100
O155        O  0.21017596  0.27909631  0.52993503    -0.72000
O156        O  0.29727935  0.27837056  0.52921333    -0.72300
O157        O  0.25311735  0.27814943  0.48982252    -0.72100
O158        O  0.25427302  0.27929639  0.56916696    -0.72100
O159        O  0.25347503  0.22941997  0.56954237    -0.72100
O160        O  0.25331483  0.22827077  0.49045494    -0.72100
O161        O  0.29698970  0.22860156  0.53011973    -0.72000
O162        O  0.20981594  0.22926366  0.52980912    -0.72200
V163        V  0.25372001  0.27777064  0.52950546     1.35200
V164        V  0.25340238  0.22986626  0.52999204     1.35200
C165        C  0.19515083  0.25430615  0.53011408     0.77200
C166        C  0.31204797  0.25341568  0.52978080     0.77300
C167        C  0.25308913  0.25299436  0.47669158     0.77100
C168        C  0.25391747  0.25445636  0.58279912     0.77100
O169        O  0.47680119  0.00341260  0.07320659    -0.72000
O170        O  0.47910302  0.50230981  0.99281924    -0.72300
O171        O  0.47846020  0.45980650  0.03327047    -0.72100
O172        O  0.47711838  0.04660402  0.03316930    -0.72100
O173        O  0.02725913  0.04422597  0.03232207    -0.72100
O174        O  0.02823381  0.45840099  0.03375027    -0.72100
O175        O  0.02583760  0.00086392  0.99260265    -0.72000
O176        O  0.02780769  0.50207175  0.07331668    -0.72200
V177        V  0.48049814  0.50334115  0.03231009     1.35200
V178        V  0.02731983  0.50188944  0.03359524     1.35200
C179        C  0.50472689  0.50340090  0.08534627     0.77200
C180        C  0.50387272  0.50205095  0.97923115     0.77300
C181        C  0.50299316  0.44429401  0.03252812     0.77100
C182        C  0.50233778  0.06107294  0.03326670     0.77100
O183        O  0.02802736  0.20819494  0.03277819    -0.72000
O184        O  0.03048989  0.29537051  0.03156608    -0.72300
O185        O  0.02792745  0.25257115  0.07172530    -0.72100
O186        O  0.03084570  0.25106506  0.99254987    -0.72100
O187        O  0.47815279  0.25327108  0.98843382    -0.72100
O188        O  0.47636751  0.25389678  0.06771100    -0.72100
O189        O  0.47800963  0.29712037  0.02791521    -0.72000
O190        O  0.47642083  0.21005306  0.02841514    -0.72200
V191        V  0.02837192  0.25181906  0.03212484     1.35200
V192        V  0.47820052  0.25356403  0.02810005     1.35200
C193        C  0.50094063  0.19455780  0.02955897     0.77200
C194        C  0.50321471  0.31154116  0.02791311     0.77300
C195        C  0.50111837  0.25402984  0.08163036     0.77100
C196        C  0.50344852  0.25228866  0.97560641     0.77100
O197        O  0.27395652  0.49795314  0.06949298    -0.72000
O198        O  0.27138779  0.99781918  0.99025943    -0.72300
O199        O  0.27275061  0.04168740  0.02932700    -0.72100
O200        O  0.27110463  0.45369865  0.03075047    -0.72100
O201        O  0.22130915  0.45571959  0.03046577    -0.72100
O202        O  0.22291318  0.04218284  0.03055587    -0.72100
O203        O  0.22223568  0.49942378  0.99096301    -0.72000
O204        O  0.22355965  0.99863920  0.07020766    -0.72200
V205        V  0.27198664  0.49726868  0.02997120     1.35200
V206        V  0.22407164  0.49918631  0.03060448     1.35200
C207        C  0.24933273  0.49859798  0.08329000     0.77200
C208        C  0.24692063  0.49788018  0.97725536     0.77300
C209        C  0.24797169  0.05682476  0.02969640     0.77100
C210        C  0.24557209  0.43979310  0.03063246     0.77100
O211        O  0.27006156  0.24732840  0.06977002    -0.72000
O212        O  0.27140376  0.24830387  0.99079136    -0.72300
O213        O  0.27101793  0.29136117  0.03087701    -0.72100
O214        O  0.27021053  0.20430500  0.02980574    -0.72100
O215        O  0.22033890  0.20480602  0.02993693    -0.72100
O216        O  0.22122828  0.29195757  0.02906231    -0.72100
O217        O  0.22146303  0.24788647  0.98969504    -0.72000
O218        O  0.22012864  0.24881662  0.06909015    -0.72200
V219        V  0.26967999  0.24784507  0.03027609     1.35200
V220        V  0.22172722  0.24835765  0.02942341     1.35200
C221        C  0.24498072  0.24815040  0.08286350     0.77200
C222        C  0.24674588  0.24794248  0.97679603     0.77300
C223        C  0.24630343  0.30659099  0.03040574     0.77100
C224        C  0.24512272  0.18967507  0.03006167     0.77100
O225        O  0.47444430  0.50102084  0.85678942    -0.72000
O226        O  0.47407668  0.00229463  0.93679165    -0.72300
O227        O  0.47322081  0.04562109  0.89692969    -0.72100
O228        O  0.47655912  0.45790306  0.89650947    -0.72100
O229        O  0.02836854  0.45732901  0.89583345    -0.72100
O230        O  0.02570590  0.04370708  0.89562162    -0.72100
O231        O  0.02811650  0.50051817  0.93590634    -0.72000
O232        O  0.02522780  0.00051494  0.85583780    -0.72200
V233        V  0.47372373  0.00203500  0.89719702     1.35200
V234        V  0.02445491  0.00021536  0.89545895     1.35200
C235        C  0.49570169  0.00286127  0.84360981     0.77200
C236        C  0.49944588  0.00174370  0.94972438     0.77300
C237        C  0.49827685  0.06030161  0.89674332     0.77100
C238        C  0.50151265  0.44318594  0.89504492     0.77100
O239        O  0.48177035  0.25263322  0.85189747    -0.72000
O240        O  0.47969244  0.25154130  0.93098810    -0.72300
O241        O  0.48135783  0.29546342  0.89191108    -0.72100
O242        O  0.48037172  0.20850806  0.89108462    -0.72100
O243        O  0.03243816  0.20672872  0.89558819    -0.72100
O244        O  0.03384869  0.29374338  0.89454071    -0.72100
O245        O  0.03249953  0.25087317  0.93476541    -0.72000
O246        O  0.03365165  0.24952054  0.85535614    -0.72200
V247        V  0.48177039  0.25200103  0.89146197     1.35200
V248        V  0.03216756  0.25023023  0.89504326     1.35200
C249        C  0.50698210  0.25119778  0.83903165     0.77200
C250        C  0.50428902  0.25198457  0.94508258     0.77300
C251        C  0.50643346  0.31012623  0.89215243     0.77100
C252        C  0.50507775  0.19325913  0.89252371     0.77100
O253        O  0.22128792  0.49728524  0.85399947    -0.72000
O254        O  0.22115057  0.99817316  0.93277494    -0.72300
O255        O  0.22173752  0.04103311  0.89233611    -0.72100
O256        O  0.22159287  0.45439289  0.89417187    -0.72100
O257        O  0.27131518  0.45444910  0.89297090    -0.72100
O258        O  0.27158029  0.04114163  0.89407724    -0.72100
O259        O  0.27143839  0.49711775  0.93328000    -0.72000
O260        O  0.27230700  0.99769408  0.85444372    -0.72200
V261        V  0.22238005  0.49786146  0.89362926     1.35200
V262        V  0.27029161  0.49803628  0.89372332     1.35200
C263        C  0.24618929  0.49857915  0.84058325     0.77200
C264        C  0.24601241  0.99794395  0.94656318     0.77300
C265        C  0.24661149  0.05597507  0.89298047     0.77100
C266        C  0.24643094  0.43941965  0.89366062     0.77100
O267        O  0.22679099  0.24734386  0.85264705    -0.72000
O268        O  0.22333582  0.24767346  0.93184992    -0.72300
O269        O  0.22551163  0.29105558  0.89206280    -0.72100
O270        O  0.22487004  0.20387321  0.89239803    -0.72100
O271        O  0.27470561  0.20367389  0.89426583    -0.72100
O272        O  0.27522506  0.29070772  0.89432421    -0.72100
O273        O  0.27324806  0.24713422  0.93376594    -0.72000
O274        O  0.27663979  0.24761336  0.85462085    -0.72200
V275        V  0.22608060  0.24746715  0.89226929     1.35200
V276        V  0.27397859  0.24722699  0.89418628     1.35200
C277        C  0.25228289  0.24796771  0.84012908     0.77200
C278        C  0.24774707  0.24755964  0.94624921     0.77300
C279        C  0.25052070  0.30586785  0.89316154     0.77100
C280        C  0.24973984  0.18888035  0.89363599     0.77100
O281        O  0.49417383  0.47146257  0.70884933    -0.72000
O282        O  0.99439356  0.47302851  0.63006370    -0.72300
O283        O  0.03811698  0.47166939  0.66956287    -0.72100
O284        O  0.45105737  0.47176594  0.66857543    -0.72100
O285        O  0.45276886  0.02487899  0.66824902    -0.72100
O286        O  0.04051403  0.02083486  0.66944724    -0.72100
O287        O  0.49758311  0.02413493  0.63015021    -0.72000
O288        O  0.99696977  0.02119264  0.70862222    -0.72200
V289        V  0.49465462  0.47203936  0.66917540     1.35200
V290        V  0.49636028  0.02368289  0.66968014     1.35200
C291        C  0.49474685  0.49649614  0.72214669     0.77200
C292        C  0.49562498  0.49558652  0.61595557     0.77300
C293        C  0.05360899  0.49618184  0.66965688     0.77100
C294        C  0.43657866  0.49692901  0.66810275     0.77100
O295        O  0.00226792  0.27633512  0.70696507    -0.72000
O296        O  0.50450063  0.27310671  0.62544036    -0.72300
O297        O  0.46036961  0.27332602  0.66420217    -0.72100
O298        O  0.04670785  0.27767588  0.66832886    -0.72100
O299        O  0.04876473  0.22788682  0.66714108    -0.72100
O300        O  0.46096229  0.22364163  0.66631703    -0.72100
O301        O  0.00412131  0.22540396  0.62843243    -0.72000
O302        O  0.50532880  0.22517060  0.70557130    -0.72200
V303        V  0.50399805  0.27295391  0.66492942     1.35200
V304        V  0.50458243  0.22509356  0.66587026     1.35200
C305        C  0.50435982  0.25046052  0.71849905     0.77200
C306        C  0.50406377  0.24799301  0.61234520     0.77300
C307        C  0.44569345  0.24829846  0.66541159     0.77100
C308        C  0.06257817  0.25338682  0.66798546     0.77100
O309        O  0.24335784  0.47268637  0.70637970    -0.72000
O310        O  0.24563301  0.47309224  0.62719476    -0.72300
O311        O  0.28802277  0.47174808  0.66799013    -0.72100
O312        O  0.20108887  0.47392839  0.66570344    -0.72100
O313        O  0.20335441  0.02343084  0.66842163    -0.72100
O314        O  0.29043887  0.02208235  0.66620975    -0.72100
O315        O  0.24567392  0.02420463  0.62769798    -0.72000
O316        O  0.24836207  0.02156849  0.70689603    -0.72200
V317        V  0.24456516  0.47382621  0.66679870     1.35200
V318        V  0.24690397  0.02188115  0.66728913     1.35200
C319        C  0.24462102  0.49747222  0.71999280     0.77200
C320        C  0.24560807  0.49812689  0.61384256     0.77300
C321        C  0.30359397  0.49618404  0.66753330     0.77100
C322        C  0.18671913  0.49909932  0.66675748     0.77100
O323        O  0.25492708  0.27677649  0.70662309    -0.72000
O324        O  0.25309758  0.27899683  0.62718619    -0.72300
O325        O  0.21033082  0.27844456  0.66756076    -0.72100
O326        O  0.29751811  0.27750275  0.66620411    -0.72100
O327        O  0.29710127  0.22776864  0.66718282    -0.72100
O328        O  0.20989716  0.22875059  0.66430721    -0.72100
O329        O  0.25471928  0.22914878  0.62640020    -0.72000
O330        O  0.25196043  0.22705721  0.70533786    -0.72200
V331        V  0.25395759  0.27700403  0.66689351     1.35200
V332        V  0.25345873  0.22915369  0.66586723     1.35200
C333        C  0.25305613  0.25146164  0.71947324     0.77200
C334        C  0.25394235  0.25431621  0.61334713     0.77300
C335        C  0.19525121  0.25374932  0.66553218     0.77100
C336        C  0.31226959  0.25253233  0.66642750     0.77100
C337        C  0.36165910  0.22628816  0.67692350    -0.20600
C338        C  0.34641153  0.25204105  0.66589883    -0.07100
C339        C  0.36405927  0.27613478  0.65420243     0.13700
C340        C  0.39622766  0.27390746  0.65425886    -0.20600
C341        C  0.41151771  0.24830131  0.66552149    -0.07100
C342        C  0.39386308  0.22406412  0.67698520     0.13700
C343        C  0.40851736  0.19611125  0.69003140    -0.24000
H344        H  0.34825753  0.20781675  0.68589541     0.15000
H345        H  0.40958092  0.29237371  0.64521964     0.15000
C346        C  0.34941950  0.30397502  0.64092600    -0.23900
H347        H  0.39114940  0.18038070  0.69912370     0.05200
H348        H  0.42436495  0.20317332  0.70708930     0.08500
H349        H  0.42128878  0.18298899  0.67401080     0.08500
H350        H  0.33712112  0.31756734  0.65692647     0.08500
H351        H  0.33312181  0.29671879  0.62430966     0.08500
H352        H  0.36673016  0.31931996  0.63122277     0.05200
C353        C  0.11181063  0.23523261  0.64895409    -0.20600
C354        C  0.09647456  0.25448463  0.66774937    -0.07100
C355        C  0.11383270  0.27403111  0.68540975     0.13700
C356        C  0.14599492  0.27394136  0.68346387    -0.20600
C357        C  0.16130847  0.25410631  0.66517339    -0.07100
C358        C  0.14397619  0.23483260  0.64734922     0.13700
C359        C  0.15910379  0.21467028  0.62587016    -0.24000
H360        H  0.09846419  0.22059957  0.63519659     0.15000
H361        H  0.15929829  0.28865009  0.69719910     0.15000
C362        C  0.09969843  0.29407783  0.70755070    -0.23900
H363        H  0.14191062  0.20279441  0.61250245     0.05200
H364        H  0.17319610  0.19675695  0.63628865     0.08500
H365        H  0.17388454  0.22882557  0.61208859     0.08500
H366        H  0.07466021  0.29078308  0.70993971     0.08500
H367        H  0.10418588  0.31856387  0.70260642     0.08500
H368        H  0.11030593  0.28862174  0.72809833     0.05200
C369        C  0.38690550  0.47283253  0.68014163    -0.20600
C370        C  0.40256896  0.49729967  0.66752837    -0.07100
C371        C  0.38632985  0.02335057  0.65368752     0.13700
C372        C  0.35416005  0.02149439  0.65390613    -0.20600
C373        C  0.33760843  0.49548423  0.66769369    -0.07100
C374        C  0.35470926  0.47157612  0.68047689     0.13700
C375        C  0.33945408  0.44511042  0.69525690    -0.24000
H376        H  0.39998704  0.45469355  0.69016874     0.15000
H377        H  0.34080033  0.03962461  0.64417440     0.15000
C378        C  0.40121082  0.05010391  0.63903649    -0.23900
H379        H  0.35650554  0.42967069  0.70538972     0.05200
H380        H  0.32616791  0.43110359  0.68010398     0.08500
H381        H  0.32396420  0.45391384  0.71175539     0.08500
H382        H  0.41693543  0.04158349  0.62259527     0.08500
H383        H  0.41416993  0.06431606  0.65425329     0.08500
H384        H  0.38394392  0.06525409  0.62884874     0.05200
C385        C  0.10436724  0.02159362  0.67871168    -0.20600
C386        C  0.08766966  0.49592842  0.66902026    -0.07100
C387        C  0.10492837  0.47073467  0.65896730     0.13700
C388        C  0.13705373  0.47290371  0.65813363    -0.20600
C389        C  0.15262968  0.49933014  0.66727479    -0.07100
C390        C  0.13650607  0.02367815  0.67851877     0.13700
C391        C  0.15127340  0.05227104  0.69017121    -0.24000
H392        H  0.09113983  0.04067724  0.68676027     0.15000
H393        H  0.15013617  0.45364517  0.65024045     0.15000
C394        C  0.08998308  0.44158202  0.64873158    -0.23900
H395        H  0.13399532  0.06850781  0.69862229     0.05200
H396        H  0.16393650  0.06452074  0.67349214     0.08500
H397        H  0.16719903  0.04609412  0.70747464     0.08500
H398        H  0.07337151  0.44684653  0.63174395     0.08500
H399        H  0.07795288  0.43003820  0.66619735     0.08500
H400        H  0.10707706  0.42509586  0.64037248     0.05200
C401        C  0.23201586  0.23131161  0.79419492    -0.20600
C402        C  0.25329254  0.24900713  0.80927200    -0.07100
C403        C  0.27406743  0.26807390  0.79464189     0.13700
C404        C  0.27316506  0.26867566  0.76533767    -0.20600
C405        C  0.25242534  0.25035465  0.75029385    -0.07100
C406        C  0.23145853  0.23152662  0.76490748     0.13700
C407        C  0.20774908  0.21242246  0.74981865    -0.24000
H408        H  0.21587920  0.21699747  0.80543318     0.15000
H409        H  0.28901101  0.28327081  0.75405624     0.15000
C410        C  0.29640834  0.28870767  0.80972884    -0.23900
H411        H  0.19212994  0.20055593  0.76457396     0.05200
H412        H  0.21920129  0.19454486  0.73711742     0.08500
H413        H  0.19352410  0.22733164  0.73606493     0.08500
H414        H  0.31307064  0.27476304  0.82192532     0.08500
H415        H  0.28366406  0.30422120  0.82391419     0.08500
H416        H  0.30974743  0.30315978  0.79502142     0.05200
C417        C  0.27480665  0.39018279  0.88903159    -0.20600
C418        C  0.24671475  0.40520344  0.89374183    -0.07100
C419        C  0.22009294  0.38717720  0.89858362     0.13700
C420        C  0.22239106  0.35506777  0.89816432    -0.20600
C421        C  0.25043878  0.34005677  0.89335801    -0.07100
C422        C  0.27714976  0.35804856  0.88887902     0.13700
C423        C  0.30828561  0.34399515  0.88366429    -0.24000
H424        H  0.29529021  0.40370064  0.88536568     0.15000
H425        H  0.20192699  0.34153764  0.90189023     0.15000
C426        C  0.18910332  0.40114218  0.90463348    -0.23900
H427        H  0.32613769  0.36169344  0.87980994     0.05200
H428        H  0.30730661  0.32899457  0.86500401     0.08500
H429        H  0.31577254  0.33054770  0.90217501     0.08500
H430        H  0.18109581  0.41482194  0.88644292     0.08500
H431        H  0.19062886  0.41585321  0.92349005     0.08500
H432        H  0.17135865  0.38339307  0.90869981     0.05200
C433        C  0.26951894  0.10517684  0.90846405    -0.20600
C434        C  0.24671199  0.08997489  0.89294592    -0.07100
C435        C  0.22493428  0.10749464  0.87770369     0.13700
C436        C  0.22653056  0.13966095  0.87852444    -0.20600
C437        C  0.24943362  0.15486911  0.89392073    -0.07100
C438        C  0.27110608  0.13734177  0.90929871     0.13700
C439        C  0.29529203  0.15221096  0.92742889    -0.24000
H440        H  0.28599537  0.09176038  0.92036533     0.15000
H441        H  0.21001130  0.15307267  0.86667294     0.15000
C442        C  0.20063558  0.09260101  0.85971646    -0.23900
H443        H  0.30901242  0.13494175  0.93914215     0.05200
H444        H  0.28420671  0.16758811  0.94285778     0.08500
H445        H  0.31150525  0.16553541  0.91437713     0.08500
H446        H  0.18445867  0.07937477  0.87289296     0.08500
H447        H  0.21162282  0.07709423  0.84433616     0.08500
H448        H  0.18692662  0.10984657  0.84794333     0.05200
C449        C  0.22593747  0.47903823  0.79566539    -0.20600
C450        C  0.24599680  0.49895130  0.80976240    -0.07100
C451        C  0.26973744  0.01432285  0.79405962     0.13700
C452        C  0.26853342  0.01364118  0.76480024    -0.20600
C453        C  0.24438326  0.49747859  0.75084582    -0.07100
C454        C  0.22504356  0.47783109  0.76640468     0.13700
C455        C  0.20273328  0.45625130  0.75238641    -0.24000
H456        H  0.21118974  0.46399059  0.80766182     0.15000
H457        H  0.28484052  0.02705478  0.75286982     0.15000
C458        C  0.29343833  0.03435460  0.80811547    -0.23900
H459        H  0.18820612  0.44399686  0.76778895     0.05200
H460        H  0.21541079  0.43865643  0.74033474     0.08500
H461        H  0.18701436  0.97411840  0.73760764     0.08500
H462        H  0.30381868  0.52976716  0.82057307     0.08500
H463        H  0.28193027  0.05100619  0.82213091     0.08500
H464        H  0.30711618  0.04758487  0.79273391     0.05200
C465        C  0.98823589  0.27056810  0.79686225    -0.20600
C466        C  0.50732006  0.25098138  0.80828503    -0.07100
C467        C  0.52302698  0.22822060  0.79302796     0.13700
C468        C  0.52143686  0.22857138  0.76377301    -0.20600
C469        C  0.50490442  0.25137994  0.74938647    -0.07100
C470        C  0.98648748  0.27170571  0.76762242     0.13700
C471        C  0.96360943  0.29308942  0.75404360    -0.24000
H472        H  0.97361232  0.28545382  0.80911567     0.15000
H473        H  0.53339009  0.21102796  0.75204647     0.15000
C474        C  0.54042944  0.20286245  0.80751318    -0.23900
H475        H  0.94949485  0.30533999  0.76973368     0.05200
H476        H  0.94779943  0.27985113  0.74033964     0.08500
H477        H  0.97579574  0.31069861  0.74155451     0.08500
H478        H  0.52464609  0.19003948  0.82142843     0.08500
H479        H  0.55962427  0.21261467  0.81998710     0.08500
H480        H  0.55036790  0.18634168  0.79241633     0.05200
C481        C  0.03109698  0.39287609  0.90598711    -0.20600
C482        C  0.50206107  0.40913163  0.89422361    -0.07100
C483        C  0.47672855  0.39141522  0.88487255     0.13700
C484        C  0.47923052  0.35934867  0.88430807    -0.20600
C485        C  0.50628867  0.34422066  0.89264663    -0.07100
C486        C  0.03363726  0.36076153  0.90574442     0.13700
C487        C  0.06218461  0.34626880  0.91793624    -0.24000
H488        H  0.04968936  0.40642900  0.91470019     0.15000
H489        H  0.45978356  0.34595707  0.87707084     0.15000
C490        C  0.44717223  0.40583504  0.87473674    -0.23900
H491        H  0.07803291  0.36365813  0.92694223     0.05200
H492        H  0.07489586  0.33384310  0.90142459     0.08500
H493        H  0.05584699  0.33010299  0.93486296     0.08500
H494        H  0.45199593  0.42198996  0.85736106     0.08500
H495        H  0.43580396  0.41814408  0.89210678     0.08500
H496        H  0.43064816  0.38841677  0.86685670     0.05200
C497        C  0.02957906  0.10752307  0.88840094    -0.20600
C498        C  0.49920123  0.09437986  0.89599214    -0.07100
C499        C  0.47384310  0.11306096  0.90329627     0.13700
C500        C  0.47670957  0.14507329  0.90176442    -0.20600
C501        C  0.50423104  0.15920851  0.89352176    -0.07100
C502        C  0.03251006  0.13958350  0.88826378     0.13700
C503        C  0.06339073  0.15312859  0.88109817    -0.24000
H504        H  0.04948129  0.09364285  0.88345941     0.15000
H505        H  0.45724614  0.15922753  0.90744019     0.15000
C506        C  0.44385632  0.09981901  0.91336149    -0.23900
H507        H  0.08048815  0.13516067  0.87578362     0.05200
H508        H  0.57055285  0.16716753  0.89495194     0.08500
H509        H  0.06115641  0.16853819  0.86275820     0.08500
H510        H  0.44800015  0.08515883  0.93197893     0.08500
H511        H  0.93554636  0.08462545  0.89049452     0.08500
H512        H  0.42731403  0.11800917  0.91943372     0.05200
C513        C  0.98630022  0.47449134  0.79961839    -0.20600
C514        C  0.49442713  0.00370351  0.81289552    -0.07100
C515        C  0.51002018  0.02624122  0.79712876     0.13700
C516        C  0.50927783  0.02456369  0.76791480    -0.20600
C517        C  0.49520193  0.49725836  0.75307841    -0.07100
C518        C  0.98472800  0.47255586  0.77040379     0.13700
C519        C  0.96986176  0.44467264  0.75752379    -0.24000
H520        H  0.97732417  0.45591201  0.81225268     0.15000
H521        H  0.52160274  0.04166257  0.75590754     0.15000
C522        C  0.52674309  0.05296552  0.81022384    -0.23900
H523        H  0.96060745  0.42884445  0.77360897     0.05200
H524        H  0.98701059  0.43162797  0.74525812     0.08500
H525        H  0.44310464  0.45964503  0.74261660     0.08500
H526        H  0.05386726  0.05045644  0.80197308     0.08500
H527        H  0.52461216  0.05381740  0.83321519     0.08500
H528        H  0.51711221  0.07477297  0.80193040     0.05200
C529        C  0.26943594  0.38995450  0.04301593    -0.20600
C530        C  0.24451951  0.40573198  0.03100640    -0.07100
C531        C  0.21988708  0.38865743  0.01936061     0.13700
C532        C  0.22124811  0.35645606  0.01962746    -0.20600
C533        C  0.24646100  0.34068112  0.03117548    -0.07100
C534        C  0.27070794  0.35778564  0.04345785     0.13700
C535        C  0.29763612  0.34259152  0.05783827    -0.24000
H536        H  0.28805872  0.40293847  0.05237792     0.15000
H537        H  0.20257165  0.34348000  0.01035456     0.15000
C538        C  0.19247667  0.40394445  0.00585692    -0.23900
H539        H  0.31320481  0.35962379  0.06776849     0.05200
H540        H  0.31142523  0.32953454  0.04249171     0.08500
H541        H  0.28927927  0.32697700  0.07448708     0.08500
H542        H  0.20018927  0.41934785  0.98879603     0.08500
H543        H  0.17955309  0.41728964  0.02162516     0.08500
H544        H  0.17631389  0.38695351  0.99668314     0.05200
C545        C  0.26852290  0.14042976  0.01565713    -0.20600
C546        C  0.24509710  0.15569461  0.03012445    -0.07100
C547        C  0.22283568  0.13826053  0.04461367     0.13700
C548        C  0.22451004  0.10610735  0.04398513    -0.20600
C549        C  0.24795559  0.09082638  0.02954031    -0.07100
C550        C  0.27022635  0.10827600  0.01506451     0.13700
C551        C  0.29524300  0.09335448  0.99817469    -0.24000
H552        H  0.28544880  0.15379338  0.00441519     0.15000
H553        H  0.20756425  0.09276217  0.05521550     0.15000
C554        C  0.19791418  0.15321399  0.06161143    -0.23900
H555        H  0.30948849  0.11058265  0.98709024     0.05200
H556        H  0.28491060  0.07791298  0.98227245     0.08500
H557        H  0.31083443  0.08009569  0.01205638     0.08500
H558        H  0.18221025  0.16640307  0.04777630     0.08500
H559        H  0.20833990  0.16875825  0.07738060     0.08500
H560        H  0.18381014  0.13601169  0.07290162     0.05200
C561        C  0.02702895  0.39464027  0.01943227    -0.20600
C562        C  0.50236864  0.41031827  0.03161998    -0.07100
C563        C  0.48050004  0.39274380  0.04644371     0.13700
C564        C  0.48132584  0.36060841  0.04456350    -0.20600
C565        C  0.50353834  0.34550291  0.02847673    -0.07100
C566        C  0.02867659  0.36251065  0.01819400     0.13700
C567        C  0.05364115  0.34785775  0.00107406    -0.24000
H568        H  0.04388209  0.40822928  0.00833064     0.15000
H569        H  0.46478694  0.34711679  0.05614434     0.15000
C570        C  0.45699116  0.40751931  0.06510963    -0.23900
H571        H  0.06781805  0.36523867  0.99008844     0.05200
H572        H  0.04322037  0.33259016  0.98510319     0.08500
H573        H  0.06922244  0.33436179  0.01478108     0.08500
H574        H  0.44081064  0.42158469  0.05250282     0.08500
H575        H  0.46874201  0.42223398  0.08076085     0.08500
H576        H  0.44321140  0.39018405  0.07656270     0.05200
C577        C  0.03004616  0.14379128  0.03314095    -0.20600
C578        C  0.50044282  0.16037980  0.03052690    -0.07100
C579        C  0.47482412  0.14271267  0.02163496     0.13700
C580        C  0.47637219  0.11055699  0.02292928    -0.20600
C581        C  0.50268778  0.09523705  0.03280322    -0.07100
C582        C  0.03147365  0.11159572  0.03326160     0.13700
C583        C  0.06274864  0.09671874  0.03489344    -0.24000
H584        H  0.05130683  0.15668615  0.03414379     0.15000
H585        H  0.45682628  0.09722267  0.01582530     0.15000
C586        C  0.44591187  0.15719625  0.01014122    -0.23900
H587        H  0.08154063  0.11393365  0.03593518     0.05200
H588        H  0.06669648  0.08252084  0.01603676     0.08500
H589        H  0.06445531  0.08233761  0.05398128     0.08500
H590        H  0.45153657  0.17187062  0.99190993     0.08500
H591        H  0.43459789  0.17108102  0.02653744     0.08500
H592        H  0.42901909  0.13972046  0.00305331     0.05200
C593        C  0.39617974  0.27466966  0.54067917    -0.20600
C594        C  0.41102522  0.24949680  0.52842843    -0.07100
C595        C  0.39306199  0.22564987  0.51661754     0.13700
C596        C  0.36090363  0.22771974  0.51749533    -0.20600
C597        C  0.34609076  0.25297386  0.52964097    -0.07100
C598        C  0.36404621  0.27673420  0.54154129     0.13700
C599        C  0.34974141  0.30390358  0.55596785    -0.24000
H600        H  0.40985467  0.29280382  0.54996523     0.15000
H601        H  0.34718035  0.20957642  0.50827965     0.15000
C602        C  0.40733472  0.19836788  0.50232219    -0.23900
H603        H  0.36732603  0.31895109  0.56578362     0.05200
H604        H  0.33409908  0.29583759  0.57265476     0.08500
H605        H  0.33675461  0.31804797  0.54067020     0.08500
H606        H  0.42060887  0.18448877  0.51762202     0.08500
H607        H  0.42265290  0.20627727  0.48530675     0.08500
H608        H  0.38969192  0.18306840  0.49292644     0.05200
C609        C  0.11184352  0.27346674  0.54606314    -0.20600
C610        C  0.09646052  0.25132155  0.52999988    -0.07100
C611        C  0.11368571  0.23068657  0.51353613     0.13700
C612        C  0.14584803  0.23237736  0.51402694    -0.20600
C613        C  0.16124002  0.25432606  0.53027257    -0.07100
C614        C  0.14403767  0.27516843  0.54654398     0.13700
C615        C  0.15936592  0.29843057  0.56526291    -0.24000
H616        H  0.09857423  0.28921302  0.55868935     0.15000
H617        H  0.15910913  0.21664591  0.50137333     0.15000
C618        C  0.09839918  0.20762785  0.49460289    -0.23900
H619        H  0.14234991  0.31155281  0.57765866     0.05200
H620        H  0.17247357  0.31517522  0.55256786     0.08500
H621        H  0.17512238  0.28661913  0.58009705     0.08500
H622        H  0.08224597  0.21960790  0.48025955     0.08500
H623        H  0.08571057  0.19042419  0.50713505     0.08500
H624        H  0.11537997  0.19503444  0.48172312     0.05200
C625        C  0.39070531  0.02049954  0.54831077    -0.20600
C626        C  0.40488849  0.49558090  0.53151867    -0.07100
C627        C  0.38753999  0.47428185  0.51564690     0.13700
C628        C  0.35530272  0.47548136  0.51646937    -0.20600
C629        C  0.33988313  0.49745351  0.53256813    -0.07100
C630        C  0.35845080  0.02177978  0.54872016     0.13700
C631        C  0.34310514  0.04551463  0.56678952    -0.24000
H632        H  0.40384782  0.03691955  0.56045658     0.15000
H633        H  0.34200009  0.45946755  0.50402414     0.15000
C634        C  0.40268064  0.45095528  0.49700923    -0.23900
H635        H  0.36012087  0.05909321  0.57893142     0.05200
H636        H  0.32752896  0.03407525  0.58185474     0.08500
H637        H  0.32985161  0.06184368  0.55364588     0.08500
H638        H  0.41622208  0.43446598  0.50974607     0.08500
H639        H  0.41797135  0.46273481  0.48191953     0.08500
H640        H  0.38552887  0.43751402  0.48488961     0.05200
C641        C  0.10619851  0.02131929  0.51493881    -0.20600
C642        C  0.08998409  0.49934702  0.53341277    -0.07100
C643        C  0.10769494  0.47955360  0.55051438     0.13700
C644        C  0.13984653  0.47992460  0.54836156    -0.20600
C645        C  0.15480606  0.49974449  0.52976177    -0.07100
C646        C  0.13839753  0.02205171  0.51304312     0.13700
C647        C  0.15313048  0.04447827  0.49320373    -0.24000
H648        H  0.09259010  0.03721681  0.50258867     0.15000
H649        H  0.15346913  0.46499455  0.56166604     0.15000
C650        C  0.09296294  0.45890810  0.57185162    -0.23900
H651        H  0.13569635  0.05771304  0.48118604     0.05200
H652        H  0.16767032  0.03192877  0.47803777     0.08500
H653        H  0.16738731  0.06120388  0.50494113     0.08500
H654        H  0.07852338  0.44137395  0.56134661     0.08500
H655        H  0.07854985  0.47282800  0.58609317     0.08500
H656        H  0.11038398  0.44660613  0.58468463     0.05200
C657        C  0.39423895  0.23120628  0.37832839    -0.20600
C658        C  0.40968542  0.25447093  0.39297264    -0.07100
C659        C  0.39240214  0.27680160  0.40751038     0.13700
C660        C  0.36020049  0.27517881  0.40691459    -0.20600
C661        C  0.34479497  0.25175798  0.39242771    -0.07100
C662        C  0.36207648  0.22957637  0.37775124     0.13700
C663        C  0.34694708  0.20473401  0.36064229    -0.24000
H664        H  0.40746389  0.21429872  0.36696297     0.15000
H665        H  0.34692315  0.29210521  0.41820772     0.15000
C666        C  0.40752865  0.30176891  0.42446752    -0.23900
H667        H  0.36405968  0.19076600  0.34914653     0.05200
H668        H  0.33110618  0.21518180  0.34505412     0.08500
H669        H  0.33402154  0.18891817  0.37442236     0.08500
H670        H  0.42062588  0.31735542  0.41060086     0.08500
H671        H  0.42320715  0.29143432  0.44025057     0.08500
H672        H  0.39039844  0.31594901  0.43572849     0.05200
C673        C  0.10979735  0.27363236  0.38212254    -0.20600
C674        C  0.09464008  0.24779997  0.39291910    -0.07100
C675        C  0.11238687  0.22299435  0.40336449     0.13700
C676        C  0.14457956  0.22508133  0.40312775    -0.20600
C677        C  0.15971691  0.25107139  0.39255574    -0.07100
C678        C  0.14195006  0.27558305  0.38159242     0.13700
C679        C  0.15638566  0.30359880  0.36857969    -0.24000
H680        H  0.09633956  0.29248761  0.37376413     0.15000
H681        H  0.15805316  0.20622892  0.41147052     0.15000
C682        C  0.09787063  0.19443336  0.41524642    -0.23900
H683        H  0.13887016  0.31940428  0.35964894     0.05200
H684        H  0.17187396  0.29660216  0.35137933     0.08500
H685        H  0.16946751  0.31665358  0.38456093     0.08500
H686        H  0.08494618  0.18214638  0.39865903     0.08500
H687        H  0.08210738  0.20060269  0.43245769     0.08500
H688        H  0.11531314  0.17828095  0.42377078     0.05200
C689        C  0.35776950  0.02396162  0.40492584    -0.20600
C690        C  0.34301220  0.99769628  0.39451976    -0.07100
C691        C  0.35981526  0.47141145  0.38693649     0.13700
C692        C  0.39198574  0.47359324  0.38757417    -0.20600
C693        C  0.40793279  0.00173202  0.39556416    -0.07100
C694        C  0.38987290  0.02635637  0.40569861     0.13700
C695        C  0.40389382  0.05499797  0.41800651    -0.24000
H696        H  0.34403246  0.04277236  0.41280185     0.15000
H697        H  0.40551494  0.45362878  0.38211434     0.15000
C698        C  0.34559965  0.44129860  0.37828357    -0.23900
H699        H  0.38614042  0.07093415  0.42611356     0.05200
H700        H  0.41694731  0.06759766  0.40179751     0.08500
H701        H  0.41930869  0.04882814  0.43568772     0.08500
H702        H  0.33047036  0.44482181  0.35982048     0.08500
H703        H  0.33220693  0.43150624  0.39580772     0.08500
H704        H  0.36324893  0.42405727  0.37250153     0.05200
C705        C  0.10622786  0.47568771  0.38721021    -0.20600
C706        C  0.09313683  0.00206218  0.39630470    -0.07100
C707        C  0.11151078  0.02636741  0.40670633     0.13700
C708        C  0.14359699  0.02404240  0.40522690    -0.20600
C709        C  0.15800880  0.99808974  0.39390484    -0.07100
C710        C  0.13830677  0.47329473  0.38618400     0.13700
C711        C  0.15203901  0.44377078  0.37557829    -0.24000
H712        H  0.09238197  0.45654215  0.38002773     0.15000
H713        H  0.15760737  0.04262052  0.41333643     0.15000
C714        C  0.09779200  0.05447726  0.42010142    -0.23900
H715        H  0.13412172  0.42728382  0.36859875     0.05200
H716        H  0.16543617  0.43241619  0.39243839     0.08500
H717        H  0.16821605  0.95192191  0.35311575     0.08500
H718        H  0.08128042  0.54910075  0.43725736     0.08500
H719        H  0.08426858  0.06769114  0.40449863     0.08500
H720        H  0.11576701  0.07009428  0.42848722     0.05200
C721        C  0.26636872  0.27087877  0.26371444    -0.20600
C722        C  0.24876984  0.24841221  0.25018138    -0.07100
C723        C  0.23332612  0.22598776  0.26612120     0.13700
C724        C  0.23525859  0.22710202  0.29535876    -0.20600
C725        C  0.25193547  0.25029453  0.30903450    -0.07100
C726        C  0.26800024  0.27231133  0.29293374     0.13700
C727        C  0.28761952  0.29684612  0.30623143    -0.24000
H728        H  0.27855188  0.28771323  0.25129188     0.15000
H729        H  0.22328266  0.20999662  0.30762823     0.15000
C730        C  0.21565808  0.20031769  0.25238009    -0.23900
H731        H  0.30004826  0.31064820  0.29039170     0.05200
H732        H  0.30501173  0.28612697  0.32021894     0.08500
H733        H  0.27304227  0.31287737  0.31830872     0.08500
H734        H  0.23103670  0.18730725  0.23824846     0.08500
H735        H  0.19607553  0.20977970  0.24019782     0.08500
H736        H  0.20622463  0.18400101  0.26796186     0.05200
C737        C  0.26960635  0.35621239  0.15178864    -0.20600
C738        C  0.24552328  0.34119930  0.16563157    -0.07100
C739        C  0.22259940  0.35898130  0.17889828     0.13700
C740        C  0.22488403  0.39111030  0.17848216    -0.20600
C741        C  0.24934245  0.40606591  0.16517286    -0.07100
C742        C  0.27170995  0.38833405  0.15114432     0.13700
C743        C  0.29724216  0.40291685  0.13459956    -0.24000
H744        H  0.28682474  0.34268286  0.14112382     0.15000
H745        H  0.20761252  0.40468689  0.18902531     0.15000
C746        C  0.19614270  0.34449662  0.19426276    -0.23900
H747        H  0.31121187  0.38551937  0.12345539     0.05200
H748        H  0.31295973  0.41568331  0.14870192     0.08500
H749        H  0.28740389  0.41875645  0.11871660     0.08500
H750        H  0.20501269  0.32881594  0.21072345     0.08500
H751        H  0.18135306  0.33158096  0.17944863     0.08500
H752        H  0.18143465  0.36195072  0.20451433     0.05200
C753        C  0.22332904  0.10574533  0.16191563    -0.20600
C754        C  0.25148277  0.09094976  0.16704051    -0.07100
C755        C  0.27801757  0.10910246  0.17197074     0.13700
C756        C  0.27546449  0.14120985  0.17169022    -0.20600
C757        C  0.24728539  0.15602397  0.16657772    -0.07100
C758        C  0.22078312  0.13782988  0.16150953     0.13700
C759        C  0.18967161  0.15159163  0.15524496    -0.24000
H760        H  0.20298588  0.09205961  0.15792707     0.15000
H761        H  0.29583367  0.15486889  0.17563297     0.15000
C762        C  0.30912558  0.09521554  0.17797708    -0.23900
H763        H  0.17204742  0.13372763  0.15103431     0.05200
H764        H  0.19102074  0.16640259  0.13641774     0.08500
H765        H  0.18162752  0.16512398  0.17339851     0.08500
H766        H  0.31708018  0.08192443  0.15964878     0.08500
H767        H  0.30781551  0.08010080  0.19659276     0.08500
H768        H  0.32677856  0.11300860  0.18233508     0.05200
C769        C  0.23186180  0.47925184  0.26444367    -0.20600
C770        C  0.25450087  0.99700131  0.25042560    -0.07100
C771        C  0.26587850  0.02185004  0.26614503     0.13700
C772        C  0.26455120  0.02057635  0.29537101    -0.20600
C773        C  0.25267779  0.99476022  0.30933545    -0.07100
C774        C  0.23013366  0.47846781  0.29364341     0.13700
C775        C  0.20603259  0.45871741  0.30716379    -0.24000
H776        H  0.21645829  0.46503604  0.25217166     0.15000
H777        H  0.27299535  0.03990034  0.30738044     0.15000
C778        C  0.27861397  0.05003898  0.25208853    -0.23900
H779        H  0.19154363  0.44669018  0.29147308     0.05200
H780        H  0.19078120  0.47340282  0.31994790     0.08500
H781        H  0.21701887  0.44097030  0.32050342     0.08500
H782        H  0.26087655  0.06032245  0.23818984     0.08500
H783        H  0.29902177  0.04376105  0.23953821     0.08500
H784        H  0.28580499  0.06770148  0.26747758     0.05200
C785        C  0.01911730  0.23149279  0.29618983    -0.20600
C786        C  0.49984937  0.25439604  0.30824014    -0.07100
C787        C  0.47666204  0.26953598  0.29266261     0.13700
C788        C  0.47775270  0.26877951  0.26340109    -0.20600
C789        C  0.50128512  0.25322203  0.24928025    -0.07100
C790        C  0.02012864  0.23166061  0.26694182     0.13700
C791        C  0.04289348  0.21105985  0.25249940    -0.24000
H792        H  0.03538297  0.21758114  0.30786000     0.15000
H793        H  0.46001631  0.28052078  0.25151835     0.15000
C794        C  0.44982326  0.28565878  0.30600098    -0.23900
H795        H  0.05578869  0.19651266  0.26759001     0.05200
H796        H  0.05996468  0.22502809  0.24099307     0.08500
H797        H  0.03062985  0.19559090  0.23778405     0.08500
H798        H  0.44967050  0.28377713  0.32903446     0.08500
H799        H  0.42803527  0.27542152  0.29822808     0.08500
H800        H  0.45022484  0.31035743  0.30029962     0.05200
C801        C  0.47591758  0.36260196  0.15786367    -0.20600
C802        C  0.00141904  0.34622577  0.16928126    -0.07100
C803        C  0.02687101  0.36362938  0.17891691     0.13700
C804        C  0.02497962  0.39576828  0.17907148    -0.20600
C805        C  0.99844493  0.41131826  0.17002406    -0.07100
C806        C  0.47443153  0.39478407  0.15836692     0.13700
C807        C  0.44555407  0.41011469  0.14775937    -0.24000
H808        H  0.45634071  0.34976832  0.15008667     0.15000
H809        H  0.04450233  0.40889821  0.18654013     0.15000
C810        C  0.05598167  0.34885064  0.18965866    -0.23900
H811        H  0.42863091  0.39322057  0.13963293     0.05200
H812        H  0.45118850  0.42609077  0.13047525     0.08500
H813        H  0.43430884  0.42283827  0.16495231     0.08500
H814        H  0.06737981  0.33600781  0.17262485     0.08500
H815        H  0.05058134  0.33313270  0.20721763     0.08500
H816        H  0.07271635  0.36609441  0.19749119     0.05200
C817        C  0.02435218  0.14582675  0.15554812    -0.20600
C818        C  0.99942944  0.16118734  0.16771878    -0.07100
C819        C  0.47760013  0.14386174  0.15147186     0.13700
C820        C  0.47930266  0.11172505  0.15299051    -0.20600
C821        C  0.00218280  0.09630757  0.16741437    -0.07100
C822        C  0.02604111  0.11368397  0.15511039     0.13700
C823        C  0.05288401  0.09874686  0.14070417    -0.24000
H824        H  0.04256237  0.15909797  0.14600500     0.15000
H825        H  0.46193272  0.09804774  0.14252358     0.15000
C826        C  0.45212571  0.15833000  0.13452907    -0.23900
H827        H  0.06824799  0.11594753  0.13086237     0.05200
H828        H  0.04442758  0.08317836  0.12401969     0.08500
H829        H  0.06688424  0.08562995  0.15602700     0.08500
H830        H  0.46203691  0.17340412  0.11818055     0.08500
H831        H  0.43688782  0.17193227  0.14826890     0.08500
H832        H  0.43765886  0.14080558  0.12395848     0.05200
C833        C  0.48082740  0.02260390  0.29892079    -0.20600
C834        C  0.50331125  0.00565987  0.31320131    -0.07100
C835        C  0.02028635  0.48476542  0.29753662     0.13700
C836        C  0.01955910  0.48593630  0.26828466    -0.20600
C837        C  0.50244456  0.00733314  0.25425200    -0.07100
C838        C  0.47991413  0.02351027  0.26963730     0.13700
C839        C  0.45530142  0.04241854  0.25551729    -0.24000
H840        H  0.46349046  0.03469201  0.31079095     0.15000
H841        H  0.03508050  0.47154095  0.25646916     0.15000
C842        C  0.04338275  0.46415423  0.31181346    -0.23900
H843        H  0.44108036  0.05507679  0.27085913     0.05200
H844        H  0.43636352  0.51827748  0.24215220     0.08500
H845        H  0.46602970  0.05954482  0.24141950     0.08500
H846        H  0.03137125  0.44610446  0.32391478     0.08500
H847        H  0.06123250  0.98034139  0.32494673     0.08500
H848        H  0.05852082  0.45245889  0.29656913     0.05200
O849        O  0.02610463  0.00401136  0.20853453    -0.72000
O850        O  0.02657811  0.50317457  0.13100848    -0.72300
O851        O  0.02662272  0.54672829  0.17050278    -0.72100
O852        O  0.02518053  0.95997174  0.16940301    -0.72100
O853        O  0.47681036  0.96135466  0.17147634    -0.72100
O854        O  0.47970426  0.54864177  0.16835907    -0.72100
O855        O  0.47728811  0.00328576  0.13046227    -0.72000
O856        O  0.47714828  0.50529088  0.20788924    -0.72200
V857        V  0.02449419  0.50323755  0.17059063     1.35200
V858        V  0.47914701  0.50514067  0.16836521     1.35200
C859        C  0.50163302  0.50480408  0.22216257     0.77200
C860        C  0.50440099  0.50390856  0.11591615     0.77300
C861        C  0.00214746  0.56228738  0.16920581     0.77100
C862        C  0.99999714  0.94547195  0.16947193     0.77100
O863        O  0.02718175  0.75266599  0.20574937    -0.72000
O864        O  0.02625666  0.75351391  0.12657014    -0.72300
O865        O  0.02746363  0.79670393  0.16657840    -0.72100
O866        O  0.02585497  0.70965032  0.16592362    -0.72100
O867        O  0.47867483  0.71098902  0.16884046    -0.72100
O868        O  0.47950109  0.79806325  0.16760662    -0.72100
O869        O  0.47867585  0.75379196  0.12848606    -0.72000
O870        O  0.47935502  0.75520570  0.20768493    -0.72200
V871        V  0.02572840  0.75318536  0.16617065     1.35200
V872        V  0.48001539  0.75450869  0.16811234     1.35200
C873        C  0.50435482  0.75405064  0.22121116     0.77200
C874        C  0.50353784  0.75394458  0.11498686     0.77300
C875        C  0.00286760  0.81212407  0.16671276     0.77100
C876        C  0.00064650  0.69524525  0.16676434     0.77100
O877        O  0.22767407  0.49824710  0.20673742    -0.72000
O878        O  0.22550554  0.99955043  0.12776746    -0.72300
O879        O  0.22705923  0.95473397  0.16611748    -0.72100
O880        O  0.22775941  0.54247922  0.16767516    -0.72100
O881        O  0.27749388  0.54147099  0.16631508    -0.76900
O882        O  0.27692147  0.95491843  0.16701966    -0.72100
O883        O  0.27549926  0.49793356  0.12680399    -0.72000
O884        O  0.27820432  0.99925288  0.20581098    -0.72200
V885        V  0.22793158  0.99821983  0.16731030     1.35200
V886        V  0.27584734  0.99840524  0.16622656     1.35200
C887        C  0.25370192  0.99775037  0.21976200     0.77200
C888        C  0.24997181  0.99861780  0.11373877     0.77300
C889        C  0.25205962  0.93995459  0.16670183     0.77100
C890        C  0.25296596  0.55694836  0.16700532     0.77100
O891        O  0.22456214  0.74840143  0.20550192    -0.72000
O892        O  0.22446006  0.74903844  0.12629193    -0.72300
O893        O  0.22478520  0.70535578  0.16570484    -0.72100
O894        O  0.22423954  0.79227426  0.16599268    -0.72100
O895        O  0.27411075  0.79257794  0.16563666    -0.72100
O896        O  0.27453722  0.70544863  0.16664355    -0.72100
O897        O  0.27441167  0.74851994  0.12654379    -0.72000
O898        O  0.27447305  0.74976778  0.20573116    -0.72200
V899        V  0.22548564  0.74878768  0.16589627     1.35200
V900        V  0.27343095  0.74905242  0.16613400     1.35200
C901        C  0.24952859  0.74907497  0.21908024     0.77200
C902        C  0.24943703  0.74871747  0.11297797     0.77300
C903        C  0.24964450  0.69041941  0.16606145     0.77100
C904        C  0.24905580  0.80728864  0.16560581     0.77100
O905        O  0.49957702  0.52783456  0.35687037    -0.72000
O906        O  0.99882595  0.52652801  0.43672052    -0.72300
O907        O  0.04251887  0.52737380  0.39740237    -0.72100
O908        O  0.45606196  0.52605458  0.39615957    -0.72100
O909        O  0.45712447  0.97744299  0.39474054    -0.72100
O910        O  0.04387321  0.97807274  0.39624302    -0.72100
O911        O  0.49922803  0.97619274  0.43585445    -0.72000
O912        O  0.00163343  0.97944433  0.35558504    -0.72200
V913        V  0.49949354  0.52546665  0.39648898     1.35200
V914        V  0.50066283  0.97861345  0.39628682     1.35200
C915        C  0.50082580  0.50334805  0.34281760     0.77200
C916        C  0.49899206  0.49953176  0.44886114     0.77300
C917        C  0.05751572  0.50255209  0.39741811     0.77100
C918        C  0.44121193  0.50122212  0.39513207     0.77100
O919        O  0.49952518  0.77709780  0.35574063    -0.72000
O920        O  0.00135083  0.77510221  0.43285203    -0.72300
O921        O  0.04373998  0.77578890  0.39252512    -0.72100
O922        O  0.45709085  0.77645957  0.39614662    -0.72100
O923        O  0.45599844  0.72678337  0.39298776    -0.72100
O924        O  0.04380885  0.72605092  0.39334674    -0.72100
O925        O  0.49903166  0.72422160  0.43339783    -0.72000
O926        O  0.00077826  0.72655325  0.35310129    -0.72200
V927        V  0.50058302  0.77460343  0.39529423     1.35200
V928        V  0.49961719  0.72675294  0.39386415     1.35200
C929        C  0.49984296  0.75264553  0.34159917     0.77200
C930        C  0.50061501  0.74861075  0.44753205     0.77300
C931        C  0.05872016  0.75091792  0.39321014     0.77100
C932        C  0.44167526  0.75196127  0.39469972     0.77100
O933        O  0.24988723  0.52252442  0.35372879    -0.72000
O934        O  0.24905947  0.52323001  0.43302046    -0.72300
O935        O  0.29295038  0.52242709  0.39384639    -0.72100
O936        O  0.20571840  0.52306250  0.39305996    -0.72100
O937        O  0.20692316  0.97275676  0.39378919    -0.72100
O938        O  0.29402232  0.97257614  0.39478216    -0.72100
O939        O  0.25013065  0.97412400  0.43381665    -0.72000
O940        O  0.25094223  0.97120909  0.35470089    -0.72200
V941        V  0.24937174  0.52186819  0.39339672     1.35200
V942        V  0.25048914  0.97363506  0.39424389     1.35200
C943        C  0.24927543  0.49748186  0.34044990     0.77200
C944        C  0.24904417  0.49839493  0.44666163     0.77300
C945        C  0.30772188  0.49741245  0.39368096     0.77100
C946        C  0.19066713  0.49822008  0.39376368     0.77100
O947        O  0.25176535  0.77795330  0.35316977    -0.72000
O948        O  0.25045775  0.77789043  0.43243024    -0.72300
O949        O  0.29459101  0.77706305  0.39363750    -0.72100
O950        O  0.20744914  0.77880688  0.39205684    -0.72100
O951        O  0.20646788  0.72910627  0.39359228    -0.72100
O952        O  0.29353973  0.72729643  0.39185104    -0.72100
O953        O  0.25112749  0.72801198  0.43230818    -0.72000
O954        O  0.24885632  0.72825104  0.35316979    -0.72200
V955        V  0.25101779  0.77698293  0.39280523     1.35200
V956        V  0.25001543  0.72912849  0.39273998     1.35200
C957        C  0.25051407  0.75310420  0.33962731     0.77200
C958        C  0.25092813  0.75288581  0.44581382     0.77300
C959        C  0.30892382  0.75186656  0.39259953     0.77100
C960        C  0.19200485  0.75427412  0.39283475     0.77100
O961        O  0.04115028  0.52441901  0.53336356    -0.72000
O962        O  0.45343903  0.52113664  0.53310083    -0.72300
O963        O  0.99764224  0.52364653  0.57320839    -0.72100
O964        O  0.49683266  0.52295093  0.49335582    -0.72100
O965        O  0.99981910  0.97607430  0.49203471    -0.72100
O966        O  0.49847435  0.97405876  0.57295207    -0.72100
O967        O  0.45573188  0.97384317  0.53226204    -0.72000
O968        O  0.04228720  0.97507770  0.53286008    -0.72200
V969        V  0.99742664  0.52344475  0.53362344     1.35200
V970        V  0.49932097  0.97537855  0.53330818     1.35200
C971        C  0.05718221  0.99995130  0.53255346     0.77200
C972        C  0.44043170  0.99847272  0.53307416     0.77300
C973        C  0.49885504  0.99894044  0.58647375     0.77100
C974        C  0.49898206  0.99995054  0.48043666     0.77100
O975        O  0.04576227  0.77357311  0.52988966    -0.72000
O976        O  0.45874634  0.77211242  0.53116922    -0.72300
O977        O  0.00219223  0.77356424  0.56920180    -0.72100
O978        O  0.50220045  0.77223338  0.49184654    -0.72100
O979        O  0.00145763  0.72444487  0.48973726    -0.72100
O980        O  0.50211586  0.72095245  0.57040026    -0.72100
O981        O  0.45800470  0.72231095  0.53075492    -0.72000
O982        O  0.04539653  0.72379774  0.52925787    -0.72200
V983        V  0.00210317  0.77293288  0.52967231     1.35200
V984        V  0.50158844  0.72256648  0.53065664     1.35200
C985        C  0.06050205  0.74854586  0.52949991     0.77200
C986        C  0.44349342  0.74742363  0.53054741     0.77300
C987        C  0.50237086  0.74578990  0.58403499     0.77100
C988        C  0.50126927  0.74763083  0.47800757     0.77100
O989        O  0.29116142  0.52286843  0.53221580    -0.72000
O990        O  0.20401633  0.52399299  0.52840830    -0.72300
O991        O  0.24584299  0.52331328  0.56987517    -0.72100
O992        O  0.24935095  0.52346126  0.49065783    -0.72100
O993        O  0.24868686  0.97541534  0.49072966    -0.72100
O994        O  0.24828625  0.97548415  0.56968734    -0.72100
O995        O  0.20483416  0.97586604  0.52995216    -0.72000
O996        O  0.29225573  0.97550543  0.53059287    -0.72200
V997        V  0.24758808  0.52244791  0.53027159     1.35200
V998        V  0.24853163  0.97654670  0.53021307     1.35200
C999        C  0.30718602  0.00038833  0.53200814     0.77200
C1000       C  0.19009659  0.00087797  0.52872624     0.77300
C1001       C  0.24711636  0.00029722  0.58317687     0.77100
C1002       C  0.24978638  0.00019687  0.47711217     0.77100
O1003       O  0.20845945  0.77663136  0.52998104    -0.72000
O1004       O  0.29565025  0.77690208  0.52960417    -0.72300
O1005       O  0.25158423  0.77738539  0.49004533    -0.72100
O1006       O  0.25244438  0.77625275  0.56927661    -0.72100
O1007       O  0.25295069  0.72637340  0.56868711    -0.72100
O1008       O  0.25144509  0.72750570  0.48955025    -0.72100
O1009       O  0.29579824  0.72711022  0.52860823    -0.72000
O1010       O  0.20859001  0.72684775  0.52958927    -0.72200
V1011       V  0.25204862  0.77582796  0.52967579     1.35200
V1012       V  0.25219773  0.72792869  0.52911810     1.35200
C1013       C  0.19361610  0.75171580  0.53015682     0.77200
C1014       C  0.31062088  0.75205628  0.52925846     0.77300
C1015       C  0.25131264  0.75261808  0.47635690     0.77100
C1016       C  0.25278660  0.75110444  0.58241317     0.77100
O1017       O  0.47977207  0.50441586  0.07181430    -0.72000
O1018       O  0.47550387  0.00254793  0.99403474    -0.72300
O1019       O  0.47534095  0.95946776  0.03409696    -0.72100
O1020       O  0.48071015  0.54691430  0.03128218    -0.72100
O1021       O  0.02845189  0.54536392  0.03343271    -0.72100
O1022       O  0.02443047  0.95726467  0.03198223    -0.72100
O1023       O  0.02862799  0.50169383  0.99388582    -0.72000
O1024       O  0.02587835  0.00068059  0.07185978    -0.72200
V1025       V  0.47716432  0.00300448  0.03361890     1.35200
V1026       V  0.02487570  0.00077568  0.03221583     1.35200
C1027       C  0.50194626  0.00269382  0.08649214     0.77200
C1028       C  0.50021069  0.00214579  0.98030986     0.77300
C1029       C  0.49997437  0.94411921  0.03353722     0.77100
C1030       C  0.50601066  0.56122372  0.03180227     0.77100
O1031       O  0.02620591  0.70830232  0.03075513    -0.72000
O1032       O  0.02615156  0.79548389  0.02875007    -0.72300
O1033       O  0.02603683  0.75296319  0.06934188    -0.72100
O1034       O  0.02667994  0.75089698  0.99023126    -0.72100
O1035       O  0.47796458  0.75308334  0.99158057    -0.72100
O1036       O  0.47827376  0.75260287  0.07091173    -0.72100
O1037       O  0.47780160  0.79635990  0.03153505    -0.72000
O1038       O  0.47840276  0.70928081  0.03091882    -0.72200
V1039       V  0.02529753  0.75190843  0.02977287     1.35200
V1040       V  0.47907577  0.75282091  0.03124916     1.35200
C1041       C  0.50335498  0.69444060  0.03105365     0.77200
C1042       C  0.50264883  0.81136992  0.03097777     0.77300
C1043       C  0.50331741  0.75337118  0.08439211     0.77100
C1044       C  0.50292007  0.75280301  0.97819789     0.77100
O1045       O  0.27349396  0.99839765  0.06929014    -0.72000
O1046       O  0.27209975  0.49651788  0.99042685    -0.72300
O1047       O  0.27466971  0.54078560  0.02919580    -0.72100
O1048       O  0.27181263  0.95454202  0.03003519    -0.72100
O1049       O  0.22203387  0.95512586  0.03054469    -0.72100
O1050       O  0.22488278  0.54270977  0.03084670    -0.72100
O1051       O  0.22145145  0.99868402  0.99083992    -0.72000
O1052       O  0.22402090  0.49902157  0.07023164    -0.72200
V1053       V  0.27138216  0.99812613  0.02976002     1.35200
V1054       V  0.22344408  0.99864687  0.03053021     1.35200
C1055       C  0.24893388  0.99857231  0.08319332     0.77200
C1056       C  0.24617022  0.99817397  0.97710722     0.77300
C1057       C  0.25035129  0.55663298  0.02992980     0.77100
C1058       C  0.24671872  0.93986227  0.03032699     0.77100
O1059       O  0.27442320  0.74800791  0.06912683    -0.72000
O1060       O  0.27439170  0.74761193  0.98992880    -0.72300
O1061       O  0.27459629  0.79131924  0.02928071    -0.72100
O1062       O  0.27420017  0.70425286  0.02975993    -0.72100
O1063       O  0.22432997  0.70453714  0.03010718    -0.72100
O1064       O  0.22480454  0.79166427  0.02865937    -0.72100
O1065       O  0.22443924  0.74748019  0.98968096    -0.72000
O1066       O  0.22447398  0.74876029  0.06888612    -0.72200
V1067       V  0.27343006  0.74780203  0.02951474     1.35200
V1068       V  0.22547338  0.74809134  0.02931049     1.35200
C1069       C  0.24944714  0.74850701  0.08244497     0.77200
C1070       C  0.24941583  0.74752170  0.97635907     0.77300
C1071       C  0.24983215  0.80645475  0.02879649     0.77100
C1072       C  0.24918814  0.68951818  0.03037037     0.77100
O1073       O  0.47125966  0.00186720  0.85766271    -0.72000
O1074       O  0.47765144  0.50168016  0.93586756    -0.72300
O1075       O  0.47576728  0.54494292  0.89618968    -0.72100
O1076       O  0.47249537  0.95844643  0.89734893    -0.72100
O1077       O  0.02504163  0.95667839  0.89521679    -0.72100
O1078       O  0.02573115  0.54430336  0.89643080    -0.72100
O1079       O  0.02564905  0.99998911  0.93509174    -0.72000
O1080       O  0.02607030  0.50137318  0.85656623    -0.72200
V1081       V  0.47707757  0.50140153  0.89632203     1.35200
V1082       V  0.02613330  0.50083247  0.89622838     1.35200
C1083       C  0.49882216  0.50193317  0.84263407     0.77200
C1084       C  0.50308660  0.50158737  0.94869523     0.77300
C1085       C  0.50055182  0.56005257  0.89625066     0.77100
C1086       C  0.49728066  0.94339166  0.89599111     0.77100
O1087       O  0.47830275  0.75143072  0.85470490    -0.72000
O1088       O  0.47804004  0.75154480  0.93398928    -0.72300
O1089       O  0.47776557  0.79500152  0.89425541    -0.72100
O1090       O  0.47883091  0.70782909  0.89458195    -0.72100
O1091       O  0.02777994  0.70676876  0.89403459    -0.72100
O1092       O  0.02824338  0.79359217  0.89245491    -0.72100
O1093       O  0.02746089  0.75102830  0.93284284    -0.72000
O1094       O  0.02845031  0.74905110  0.85359198    -0.72200
V1095       V  0.47918435  0.75144017  0.89436394     1.35200
V1096       V  0.02701794  0.75014303  0.89320476     1.35200
C1097       C  0.50329730  0.75048709  0.84142034     0.77200
C1098       C  0.50295864  0.75253391  0.94761785     0.77300
C1099       C  0.50255819  0.81016497  0.89402549     0.77100
C1100       C  0.50396531  0.69320837  0.89549334     0.77100
O1101       O  0.22244708  0.99672472  0.85341639    -0.72000
O1102       O  0.22150678  0.49841394  0.93326507    -0.72300
O1103       O  0.22129187  0.54134611  0.89307897    -0.72100
O1104       O  0.22175364  0.95401185  0.89360027    -0.72100
O1105       O  0.27164567  0.95395037  0.89401967    -0.72100
O1106       O  0.27106425  0.54156978  0.89449572    -0.72100
O1107       O  0.27110044  0.99747538  0.93346772    -0.72000
O1108       O  0.27114978  0.49915149  0.85415436    -0.72200
V1109       V  0.22272879  0.99750048  0.89308010     1.35200
V1110       V  0.27068263  0.99755083  0.89397331     1.35200
C1111       C  0.24765834  0.99724191  0.84040850     0.77200
C1112       C  0.24655562  0.49777010  0.94671684     0.77300
C1113       C  0.24608122  0.55641259  0.89367521     0.77100
C1114       C  0.24665912  0.93912615  0.89364720     0.77100
O1115       O  0.22533569  0.74712135  0.85281434    -0.72000
O1116       O  0.22463057  0.74858267  0.93208650    -0.72300
O1117       O  0.22479548  0.79150657  0.89173841    -0.72100
O1118       O  0.22523355  0.70443476  0.89318942    -0.72100
O1119       O  0.27501975  0.70467663  0.89204108    -0.72100
O1120       O  0.27461076  0.79167975  0.89434336    -0.72100
O1121       O  0.27455702  0.74689860  0.93264160    -0.72000
O1122       O  0.27518513  0.74966712  0.85351473    -0.72200
V1123       V  0.22594212  0.74793584  0.89245736     1.35200
V1124       V  0.27387947  0.74820012  0.89308145     1.35200
C1125       C  0.25040107  0.74868497  0.83968270     0.77200
C1126       C  0.24950556  0.74762879  0.94581026     0.77300
C1127       C  0.24964889  0.80645537  0.89340487     0.77100
C1128       C  0.25022475  0.68961656  0.89284792     0.77100
O1129       O  0.49422808  0.97545947  0.70986248    -0.72000
O1130       O  0.99625500  0.97272955  0.62879678    -0.72300
O1131       O  0.03940640  0.97111162  0.66885998    -0.72100
O1132       O  0.45254084  0.97510309  0.66855692    -0.72100
O1133       O  0.45189067  0.52153762  0.66845674    -0.72100
O1134       O  0.03925271  0.52138271  0.67030033    -0.72100
O1135       O  0.49550421  0.52057230  0.62926495    -0.72000
O1136       O  0.99576669  0.52204347  0.70963410    -0.72200
V1137       V  0.49598709  0.97582035  0.67026951     1.35200
V1138       V  0.49539874  0.51988635  0.66878267     1.35200
C1139       C  0.49403153  0.00053219  0.72308638     0.77200
C1140       C  0.49807855  0.99905168  0.61698819     0.77300
C1141       C  0.05488477  0.99563195  0.66908154     0.77100
C1142       C  0.43777198  0.00005322  0.66764454     0.77100
O1143       O  0.00139800  0.77448498  0.70527816    -0.72000
O1144       O  0.50272744  0.77131159  0.62749025    -0.72300
O1145       O  0.45849941  0.77168778  0.66620551    -0.72100
O1146       O  0.04575675  0.77455717  0.66660458    -0.72100
O1147       O  0.04639760  0.72470164  0.66565637    -0.72100
O1148       O  0.45934320  0.72204977  0.66873239    -0.72100
O1149       O  0.00195463  0.72371568  0.62667715    -0.72000
O1150       O  0.50366363  0.72408581  0.70792260    -0.72200
V1151       V  0.50207574  0.77154629  0.66700016     1.35200
V1152       V  0.50293701  0.72369699  0.66824067     1.35200
C1153       C  0.50221805  0.74941893  0.72073314     0.77200
C1154       C  0.50248518  0.74605782  0.61458850     0.77300
C1155       C  0.44394180  0.74661264  0.66758261     0.77100
C1156       C  0.06090381  0.74979569  0.66640174     0.77100
O1157       O  0.24527203  0.97183768  0.70574724    -0.72000
O1158       O  0.24672004  0.97435151  0.62660405    -0.72300
O1159       O  0.28953115  0.97232314  0.66685839    -0.72100
O1160       O  0.20256408  0.97381659  0.66550027    -0.72100
O1161       O  0.20222882  0.52360791  0.66741321    -0.72100
O1162       O  0.28936687  0.52148012  0.66658098    -0.72100
O1163       O  0.24520596  0.52296988  0.62738086    -0.72000
O1164       O  0.24650152  0.52240071  0.70658928    -0.72200
V1165       V  0.24604808  0.97404234  0.66617633     1.35200
V1166       V  0.24578563  0.52167164  0.66697547     1.35200
C1167       C  0.24671938  0.99630756  0.71980091     0.77200
C1168       C  0.24637699  0.99967318  0.61370974     0.77300
C1169       C  0.30488442  0.99690399  0.66650548     0.77100
C1170       C  0.18801947  0.99883164  0.66732564     0.77100
O1171       O  0.25214779  0.77331595  0.70598981    -0.72000
O1172       O  0.25138703  0.77518966  0.62676441    -0.72300
O1173       O  0.20814381  0.77409213  0.66657216    -0.72100
O1174       O  0.29527682  0.77445527  0.66623775    -0.72100
O1175       O  0.29558292  0.72474527  0.66728971    -0.72100
O1176       O  0.20838114  0.72436278  0.66345050    -0.72100
O1177       O  0.25371766  0.72536569  0.62595533    -0.72000
O1178       O  0.25003638  0.72357627  0.70502178    -0.72200
V1179       V  0.25173934  0.77331041  0.66636933     1.35200
V1180       V  0.25195045  0.72545783  0.66547880     1.35200
C1181       C  0.25064596  0.74811703  0.71903140     0.77200
C1182       C  0.25270935  0.75056080  0.61292774     0.77300
C1183       C  0.19342878  0.74918945  0.66456617     0.77100
C1184       C  0.31040984  0.74972713  0.66681204     0.77100
C1185       C  0.35986079  0.72331133  0.67668124    -0.20600
C1186       C  0.34458975  0.74971887  0.66703403    -0.07100
C1187       C  0.36229089  0.77492470  0.65750189     0.13700
C1188       C  0.39445977  0.77287984  0.65789961    -0.20600
C1189       C  0.40975404  0.74649020  0.66755452    -0.07100
C1190       C  0.39206722  0.72132954  0.67720169     0.13700
C1191       C  0.40662242  0.69251569  0.68869923    -0.24000
H1192       H  0.34646935  0.70404320  0.68415701     0.15000
H1193       H  0.40780475  0.79216180  0.65038664     0.15000
C1194       C  0.34780058  0.80392413  0.64630534    -0.23900
H1195       H  0.38917278  0.67601673  0.69644491     0.05200
H1196       H  0.42202074  0.69832471  0.70647522     0.08500
H1197       H  0.41982792  0.68072976  0.67212173     0.08500
H1198       H  0.33488296  0.81567704  0.66309007     0.08500
H1199       H  0.33213517  0.79836811  0.62867454     0.08500
H1200       H  0.36525113  0.82036841  0.63846515     0.05200
C1201       C  0.11003312  0.73205858  0.64662564    -0.20600
C1202       C  0.09477082  0.74999917  0.66652395    -0.07100
C1203       C  0.11214703  0.76766025  0.68570083     0.13700
C1204       C  0.14428800  0.76743043  0.68397286    -0.20600
C1205       C  0.15954239  0.74922913  0.66432317    -0.07100
C1206       C  0.14223959  0.73151416  0.64519989     0.13700
C1207       C  0.15750608  0.71305317  0.62258127    -0.24000
H1208       H  0.09662644  0.71875645  0.63183355     0.15000
H1209       H  0.15761850  0.78081843  0.69877037     0.15000
C1210       C  0.09792574  0.78581932  0.70909633    -0.23900
H1211       H  0.14038791  0.70203876  0.60853465     0.05200
H1212       H  0.17177673  0.69458978  0.63195214     0.08500
H1213       H  0.17220238  0.72827518  0.60968750     0.08500
H1214       H  0.07274503  0.78288553  0.71068878     0.08500
H1215       H  0.10302852  0.81057564  0.70619588     0.08500
H1216       H  0.10793380  0.77817743  0.72931311     0.05200
C1217       C  0.38851574  0.97451492  0.67827279    -0.20600
C1218       C  0.40378118  0.99972958  0.66647419    -0.07100
C1219       C  0.38547479  0.52104447  0.65450435     0.13700
C1220       C  0.35328729  0.51982830  0.65488962    -0.20600
C1221       C  0.33888906  0.99655752  0.66620723    -0.07100
C1222       C  0.35638231  0.97251942  0.67829691     0.13700
C1223       C  0.34162520  0.94509358  0.69202102    -0.24000
H1224       H  0.40185671  0.95634307  0.68795983     0.15000
H1225       H  0.34023038  0.53794176  0.64479789     0.15000
C1226       C  0.40074846  0.54725750  0.63937723    -0.23900
H1227       H  0.35895009  0.92950874  0.70156653     0.05200
H1228       H  0.32863169  0.93156901  0.67630043     0.08500
H1229       H  0.32595763  0.95279900  0.70882807     0.08500
H1230       H  0.41616949  0.53816623  0.62295180     0.08500
H1231       H  0.41409168  0.56148055  0.65431201     0.08500
H1232       H  0.38370315  0.56258414  0.62910511     0.05200
C1233       C  0.10322773  0.52237564  0.67807028    -0.20600
C1234       C  0.08894901  0.99536000  0.66898077    -0.07100
C1235       C  0.10635565  0.97033559  0.65880596     0.13700
C1236       C  0.13849064  0.97249655  0.65842692    -0.20600
C1237       C  0.15392929  0.99880907  0.66802036    -0.07100
C1238       C  0.13535423  0.52443750  0.67749206     0.13700
C1239       C  0.15027999  0.55324977  0.68851334    -0.24000
H1240       H  0.09013216  0.54162833  0.68596116     0.15000
H1241       H  0.15167548  0.95339192  0.65037048     0.15000
C1242       C  0.09154536  0.94146568  0.64778000    -0.23900
H1243       H  0.13311086  0.56972927  0.69675932     0.05200
H1244       H  0.16285740  0.56506849  0.67152622     0.08500
H1245       H  0.16631382  0.54742931  0.70583577     0.08500
H1246       H  0.07534456  0.94718887  0.63058405     0.08500
H1247       H  0.07909896  0.92957159  0.66480549     0.08500
H1248       H  0.10876867  0.92510798  0.63943112     0.05200
C1249       C  0.23271552  0.72739407  0.79451030    -0.20600
C1250       C  0.25065444  0.74899469  0.80888292    -0.07100
C1251       C  0.26809550  0.77056715  0.79366042     0.13700
C1252       C  0.26738135  0.76976385  0.76439297    -0.20600
C1253       C  0.25012045  0.74762414  0.74992816    -0.07100
C1254       C  0.23244600  0.72617585  0.76522230     0.13700
C1255       C  0.21256803  0.70254406  0.75093583    -0.24000
H1256       H  0.21919149  0.71106548  0.80632266     0.15000
H1257       H  0.28071951  0.78634381  0.75270215     0.15000
C1258       C  0.28668556  0.79509073  0.80812586    -0.23900
H1259       H  0.19905074  0.68892191  0.76615345     0.05200
H1260       H  0.22711061  0.68625692  0.73910185     0.08500
H1261       H  0.19613971  0.71406216  0.73652188     0.08500
H1262       H  0.30529547  0.78444637  0.82074960     0.08500
H1263       H  0.27157224  0.80884816  0.82190395     0.08500
H1264       H  0.29759279  0.81096996  0.79297556     0.05200
C1265       C  0.26880589  0.88979230  0.90970662    -0.20600
C1266       C  0.24671686  0.90519851  0.89349829    -0.07100
C1267       C  0.22561843  0.88797652  0.87729577     0.13700
C1268       C  0.22717656  0.85581877  0.87781844    -0.20600
C1269       C  0.24935886  0.84039651  0.89391637    -0.07100
C1270       C  0.27029432  0.85762677  0.91030561     0.13700
C1271       C  0.29346455  0.84238069  0.92928538    -0.24000
H1272       H  0.28475409  0.90304004  0.92229504     0.15000
H1273       H  0.21122050  0.84259555  0.86521958     0.15000
C1274       C  0.20216509  0.90323808  0.85860065    -0.23900
H1275       H  0.30633982  0.85937903  0.94204099     0.05200
H1276       H  0.31047480  0.82943934  0.91678964     0.08500
H1277       H  0.28151752  0.82651880  0.94377671     0.08500
H1278       H  0.21386779  0.91892390  0.84378577     0.08500
H1279       H  0.18548697  0.91636195  0.87130892     0.08500
H1280       H  0.18891731  0.88622406  0.84618599     0.05200
C1281       C  0.27308326  0.60562382  0.90248332    -0.20600
C1282       C  0.24623455  0.59053100  0.89357981    -0.07100
C1283       C  0.22077089  0.60835146  0.88454394     0.13700
C1284       C  0.22308631  0.64045754  0.88450696    -0.20600
C1285       C  0.25000135  0.65552547  0.89321645    -0.07100
C1286       C  0.27533602  0.63774478  0.90254705     0.13700
C1287       C  0.30458910  0.65214337  0.91333489    -0.24000
H1288       H  0.29251491  0.59217218  0.90971284     0.15000
H1289       H  0.20363758  0.65394039  0.87736098     0.15000
C1290       C  0.19119663  0.59407087  0.87435058    -0.23900
H1291       H  0.32114213  0.63465643  0.92110046     0.05200
H1292       H  0.29933347  0.66778261  0.93095092     0.08500
H1293       H  0.31609966  0.66502465  0.89635831     0.08500
H1294       H  0.18013706  0.58112707  0.89154162     0.08500
H1295       H  0.19590701  0.57853777  0.85653229     0.08500
H1296       H  0.17444806  0.61162028  0.86707051     0.05200
C1297       C  0.22612530  0.97939306  0.79525155    -0.20600
C1298       C  0.24817499  0.99700417  0.80952869    -0.07100
C1299       C  0.26496377  0.51895793  0.79423134     0.13700
C1300       C  0.26369931  0.51812611  0.76496779    -0.20600
C1301       C  0.24685852  0.99562596  0.75059418    -0.07100
C1302       C  0.22537627  0.97823175  0.76597227     0.13700
C1303       C  0.20098160  0.95929623  0.75165351    -0.24000
H1304       H  0.20954574  0.96623362  0.80709578     0.15000
H1305       H  0.27823300  0.53341067  0.75300392     0.15000
C1306       C  0.28582899  0.54188452  0.80831675    -0.23900
H1307       H  0.18523917  0.94836215  0.76688589     0.05200
H1308       H  0.21183141  0.94073198  0.73932386     0.08500
H1309       H  0.18727699  0.46933266  0.73819220     0.08500
H1310       H  0.30972702  0.01999365  0.82033009     0.08500
H1311       H  0.27221895  0.55683679  0.82235893     0.08500
H1312       H  0.29763927  0.55682498  0.79294193     0.05200
C1313       C  0.98608932  0.77130897  0.79469381    -0.20600
C1314       C  0.50327465  0.74982699  0.81061087    -0.07100
C1315       C  0.52008475  0.72771376  0.79550531     0.13700
C1316       C  0.51913338  0.72814891  0.76624332    -0.20600
C1317       C  0.50207300  0.75034981  0.75163137    -0.07100
C1318       C  0.98529504  0.77227469  0.76542553     0.13700
C1319       C  0.96561683  0.79624627  0.75128459    -0.24000
H1320       H  0.97315346  0.78803838  0.80655173     0.15000
H1321       H  0.53201791  0.71114204  0.75467612     0.15000
C1322       C  0.53800742  0.70284818  0.81012458    -0.23900
H1323       H  0.95257194  0.81014263  0.76660579     0.05200
H1324       H  0.94875374  0.78500483  0.73714091     0.08500
H1325       H  0.98024733  0.81227558  0.73921844     0.08500
H1326       H  0.52230675  0.68947428  0.82368187     0.08500
H1327       H  0.55667418  0.71310589  0.82291001     0.08500
H1328       H  0.54873515  0.68671749  0.79512648     0.05200
C1329       C  0.02736903  0.89251990  0.90219797    -0.20600
C1330       C  0.49763791  0.90928264  0.89544161    -0.07100
C1331       C  0.47225923  0.89141759  0.88642442     0.13700
C1332       C  0.47480845  0.85928648  0.88611741    -0.20600
C1333       C  0.50200518  0.84429878  0.89435420    -0.07100
C1334       C  0.02954590  0.86040727  0.90168977     0.13700
C1335       C  0.05963867  0.84585900  0.91021899    -0.24000
H1336       H  0.04731930  0.90579686  0.90839425     0.15000
H1337       H  0.45535329  0.84574743  0.87913396     0.15000
C1338       C  0.44264931  0.90577314  0.87638766    -0.23900
H1339       H  0.07684352  0.86322290  0.91689956     0.05200
H1340       H  0.06960427  0.83320977  0.89233836     0.08500
H1341       H  0.05596982  0.83000779  0.92804906     0.08500
H1342       H  0.44733994  0.92168344  0.85879486     0.08500
H1343       H  0.43152599  0.91837922  0.89371359     0.08500
H1344       H  0.42601185  0.88827755  0.86885750     0.05200
C1345       C  0.02754916  0.60783974  0.88864375    -0.20600
C1346       C  0.50075128  0.59413293  0.89669320    -0.07100
C1347       C  0.47577144  0.61187073  0.90655877     0.13700
C1348       C  0.47771794  0.64401023  0.90581826    -0.20600
C1349       C  0.50416541  0.65911952  0.89624017    -0.07100
C1350       C  0.02949032  0.63991600  0.88765203     0.13700
C1351       C  0.06010791  0.65409237  0.88050759    -0.24000
H1352       H  0.04800972  0.59446680  0.88447356     0.15000
H1353       H  0.45845843  0.65747977  0.91317364     0.15000
C1354       C  0.44733623  0.59741870  0.91872739    -0.23900
H1355       H  0.07774749  0.63646478  0.87572759     0.05200
H1356       H  0.57021021  0.66841275  0.89544937     0.08500
H1357       H  0.05768827  0.66896216  0.86181403     0.08500
H1358       H  0.45382111  0.58205531  0.93631249     0.08500
H1359       H  0.93447599  0.58197671  0.88861232     0.08500
H1360       H  0.43118404  0.61490494  0.92696011     0.05200
C1361       C  0.98473730  0.97490976  0.79843946    -0.20600
C1362       C  0.49743819  0.50155884  0.81191220    -0.07100
C1363       C  0.51256080  0.52372842  0.79538614     0.13700
C1364       C  0.51130565  0.52119188  0.76624750    -0.20600
C1365       C  0.49315442  0.00118241  0.75398685    -0.07100
C1366       C  0.98362046  0.97270139  0.76921442     0.13700
C1367       C  0.96703571  0.94586021  0.75623934    -0.24000
H1368       H  0.97407789  0.95724946  0.81108234     0.15000
H1369       H  0.52307847  0.53819185  0.75368003     0.15000
C1370       C  0.52925616  0.55098516  0.80756081    -0.23900
H1371       H  0.95642378  0.93083397  0.77225967     0.05200
H1372       H  0.98343311  0.93158663  0.74425420     0.08500
H1373       H  0.44009364  0.96578520  0.74173597     0.08500
H1374       H  0.04875962  0.55573715  0.80285696     0.08500
H1375       H  0.52751066  0.55254790  0.83054833     0.08500
H1376       H  0.51931063  0.57244614  0.79883614     0.05200
C1377       C  0.27347637  0.89055736  0.02138933    -0.20600
C1378       C  0.24663482  0.90569779  0.02999294    -0.07100
C1379       C  0.22092187  0.88786931  0.03814161     0.13700
C1380       C  0.22287428  0.85572771  0.03733007    -0.20600
C1381       C  0.24976977  0.84060333  0.02886212    -0.07100
C1382       C  0.27548990  0.85842003  0.02074756     0.13700
C1383       C  0.30508808  0.84408993  0.01096902    -0.24000
H1384       H  0.29316509  0.90399767  0.01496898     0.15000
H1385       H  0.20319914  0.84226555  0.04375220     0.15000
C1386       C  0.19149966  0.90216747  0.04838088    -0.23900
H1387       H  0.32193648  0.86161648  0.00402412     0.05200
H1388       H  0.30048658  0.82863400  0.99305203     0.08500
H1389       H  0.31595163  0.83099078  0.02827459     0.08500
H1390       H  0.18057094  0.91573999  0.03141324     0.08500
H1391       H  0.19638251  0.91710836  0.06662362     0.08500
H1392       H  0.17458116  0.88458917  0.05507932     0.05200
C1393       C  0.27255279  0.63999583  0.01653375    -0.20600
C1394       C  0.24926776  0.65553802  0.03095768    -0.07100
C1395       C  0.22707644  0.63837094  0.04578110     0.13700
C1396       C  0.22826993  0.60621116  0.04503139    -0.20600
C1397       C  0.25125849  0.59063073  0.03024973    -0.07100
C1398       C  0.27385981  0.60780707  0.01592291     0.13700
C1399       C  0.29878144  0.59257402  0.99914998    -0.24000
H1400       H  0.28959757  0.65316117  0.00525093     0.15000
H1401       H  0.21123236  0.59308419  0.05635933     0.15000
C1402       C  0.20274152  0.65361618  0.06326134    -0.23900
H1403       H  0.31330845  0.60962335  0.98811237     0.05200
H1404       H  0.28834941  0.57726864  0.98319557     0.08500
H1405       H  0.31407743  0.57908374  0.01312679     0.08500
H1406       H  0.18680114  0.66691565  0.04974757     0.08500
H1407       H  0.21373171  0.66910303  0.07876195     0.08500
H1408       H  0.18878281  0.63658456  0.07490904     0.05200
C1409       C  0.02159370  0.89417201  0.01604653    -0.20600
C1410       C  0.49965489  0.91015200  0.03292134    -0.07100
C1411       C  0.47760390  0.89247893  0.04743243     0.13700
C1412       C  0.47917904  0.86032715  0.04624006    -0.20600
C1413       C  0.50224414  0.84533629  0.03106286    -0.07100
C1414       C  0.02299758  0.86205551  0.01452660     0.13700
C1415       C  0.04753158  0.84747064  0.99682177    -0.24000
H1416       H  0.03856672  0.90773716  0.00507029     0.15000
H1417       H  0.46252505  0.84676348  0.05761202     0.15000
C1418       C  0.45305545  0.90718711  0.06500715    -0.23900
H1419       H  0.06143040  0.86491406  0.98562608     0.05200
H1420       H  0.03672853  0.83233365  0.98093456     0.08500
H1421       H  0.06349097  0.83391748  0.01010612     0.08500
H1422       H  0.43710819  0.92059218  0.05157818     0.08500
H1423       H  0.46385328  0.92253947  0.08070321     0.08500
H1424       H  0.43918772  0.88984235  0.07635927     0.05200
C1425       C  0.02536364  0.64426329  0.04410114    -0.20600
C1426       C  0.50366539  0.66034856  0.03065063    -0.07100
C1427       C  0.47990689  0.64280724  0.01811161     0.13700
C1428       C  0.48162123  0.61065577  0.01879321    -0.20600
C1429       C  0.50650782  0.59531815  0.03133323    -0.07100
C1430       C  0.02695656  0.61211733  0.04521062     0.13700
C1431       C  0.05293110  0.59745694  0.06136577    -0.24000
H1432       H  0.04292481  0.65772104  0.05454182     0.15000
H1433       H  0.46339001  0.59734069  0.00918417     0.15000
C1434       C  0.45308205  0.65754720  0.00318611    -0.23900
H1435       H  0.06751017  0.61479483  0.07206471     0.05200
H1436       H  0.06795087  0.58435800  0.04703165     0.08500
H1437       H  0.04350881  0.58186648  0.07752151     0.08500
H1438       H  0.46157742  0.67317015  0.98660261     0.08500
H1439       H  0.43881182  0.67053508  0.01821421     0.08500
H1440       H  0.43794805  0.64024009  0.99309561     0.05200
C1441       C  0.39437839  0.77148765  0.54444037    -0.20600
C1442       C  0.40950919  0.74813785  0.52978698    -0.07100
C1443       C  0.39196426  0.72658950  0.51440381     0.13700
C1444       C  0.35979076  0.72865890  0.51460359    -0.20600
C1445       C  0.34463799  0.75186744  0.52943560    -0.07100
C1446       C  0.36220378  0.77361263  0.54456985     0.13700
C1447       C  0.34732748  0.79842086  0.56173976    -0.24000
H1448       H  0.40784487  0.78795768  0.55622574     0.15000
H1449       H  0.34633177  0.71218004  0.50282113     0.15000
C1450       C  0.40685769  0.70203571  0.49692448    -0.23900
H1451       H  0.36455543  0.81200218  0.57364044     0.05200
H1452       H  0.33127425  0.78796106  0.57695972     0.08500
H1453       H  0.33463294  0.81454527  0.54793877     0.08500
H1454       H  0.41960794  0.68572083  0.51049018     0.08500
H1455       H  0.42283155  0.71271954  0.48174494     0.08500
H1456       H  0.38960996  0.68858193  0.48493014     0.05200
C1457       C  0.10986916  0.77265489  0.54325396    -0.20600
C1458       C  0.09457535  0.74847640  0.52972334    -0.07100
C1459       C  0.11209548  0.72527854  0.51658123     0.13700
C1460       C  0.14428542  0.72708104  0.51720977    -0.20600
C1461       C  0.15956741  0.75139118  0.53054386    -0.07100
C1462       C  0.14206903  0.77434327  0.54404300     0.13700
C1463       C  0.15697162  0.80011539  0.56014268    -0.24000
H1464       H  0.09649833  0.79021896  0.55361431     0.15000
H1465       H  0.15765295  0.70950475  0.50686165     0.15000
C1466       C  0.09722837  0.69905235  0.50108925    -0.23900
H1467       H  0.13970956  0.81466247  0.57083800     0.05200
H1468       H  0.17002891  0.81519255  0.54579509     0.08500
H1469       H  0.17263115  0.79054483  0.57633912     0.08500
H1470       H  0.08129611  0.70815140  0.48491916     0.08500
H1471       H  0.08442186  0.68424847  0.51585859     0.08500
H1472       H  0.11445870  0.68438105  0.49048781     0.05200
C1473       C  0.38945076  0.51728052  0.54791340    -0.20600
C1474       C  0.40634286  0.99812151  0.53283843    -0.07100
C1475       C  0.38914865  0.97641429  0.51728304     0.13700
C1476       C  0.35690487  0.97771174  0.51768081    -0.20600
C1477       C  0.34126799  0.00023279  0.53295979    -0.07100
C1478       C  0.35722703  0.51837862  0.54883600     0.13700
C1479       C  0.34207557  0.54117098  0.56800967    -0.24000
H1480       H  0.40273434  0.53326060  0.56041627     0.15000
H1481       H  0.34376510  0.96129086  0.50553881     0.15000
C1482       C  0.40446623  0.95251799  0.49937091    -0.23900
H1483       H  0.35923067  0.55424511  0.58044145     0.05200
H1484       H  0.32679503  0.52895416  0.58282392     0.08500
H1485       H  0.32853551  0.55803645  0.55570209     0.08500
H1486       H  0.41774734  0.93632760  0.51264044     0.08500
H1487       H  0.42001842  0.96381909  0.48419994     0.08500
H1488       H  0.38744246  0.93881318  0.48734951     0.05200
C1489       C  0.10492608  0.51922153  0.51482678    -0.20600
C1490       C  0.09119361  0.99990412  0.53201320    -0.07100
C1491       C  0.10888876  0.97883399  0.54784383     0.13700
C1492       C  0.14104942  0.97963231  0.54602304    -0.20600
C1493       C  0.15607925  0.00103457  0.52897987    -0.07100
C1494       C  0.13711196  0.51955387  0.51262834     0.13700
C1495       C  0.15185829  0.54015324  0.49123317    -0.24000
H1496       H  0.09127479  0.53413429  0.50153029     0.15000
H1497       H  0.15462049  0.96372527  0.55839527     0.15000
C1498       C  0.09416973  0.95623590  0.56751335    -0.23900
H1499       H  0.13443072  0.55264896  0.47856664     0.05200
H1500       H  0.16603917  0.52623638  0.47678556     0.08500
H1501       H  0.16651700  0.55752920  0.50170885     0.08500
H1502       H  0.08018833  0.93940890  0.55562303     0.08500
H1503       H  0.07933879  0.96867039  0.58250806     0.08500
H1504       H  0.11157705  0.94313778  0.57969162     0.05200
C1505       C  0.39211961  0.73104022  0.37790576    -0.20600
C1506       C  0.40771922  0.75256138  0.39449673    -0.07100
C1507       C  0.39063436  0.77375640  0.41052358     0.13700
C1508       C  0.35843449  0.77293820  0.40931383    -0.20600
C1509       C  0.34285695  0.75136393  0.39277243    -0.07100
C1510       C  0.35992191  0.73023440  0.37670181     0.13700
C1511       C  0.34449144  0.70755737  0.35745918    -0.24000
H1512       H  0.40525187  0.71500069  0.36546522     0.15000
H1513       H  0.34527745  0.78899457  0.42171801     0.15000
C1514       C  0.40599875  0.79654472  0.42970818    -0.23900
H1515       H  0.36147710  0.69425414  0.34518998     0.05200
H1516       H  0.32928166  0.71990120  0.34251292     0.08500
H1517       H  0.33079534  0.69089976  0.36972256     0.08500
H1518       H  0.41967858  0.81317891  0.41740033     0.08500
H1519       H  0.42118392  0.78429553  0.44473718     0.08500
H1520       H  0.38897481  0.80988339  0.44190536     0.05200
C1521       C  0.10792717  0.77738564  0.38337356    -0.20600
C1522       C  0.09282935  0.75123137  0.39360695    -0.07100
C1523       C  0.11060367  0.72656704  0.40427084     0.13700
C1524       C  0.14275439  0.72858996  0.40383575    -0.20600
C1525       C  0.15788139  0.75454299  0.39321428    -0.07100
C1526       C  0.14010489  0.77943457  0.38298741     0.13700
C1527       C  0.15455173  0.80796749  0.37097074    -0.24000
H1528       H  0.09442549  0.79633589  0.37525851     0.15000
H1529       H  0.15622119  0.70966045  0.41204085     0.15000
C1530       C  0.09616603  0.69827594  0.41677158    -0.23900
H1531       H  0.13702741  0.82428238  0.36285536     0.05200
H1532       H  0.16982533  0.80174307  0.35337707     0.08500
H1533       H  0.16788739  0.82013715  0.38736236     0.08500
H1534       H  0.08338498  0.68540282  0.40047068     0.08500
H1535       H  0.08034179  0.70492510  0.43380474     0.08500
H1536       H  0.11364201  0.68246065  0.42575684     0.05200
C1537       C  0.35693251  0.52483900  0.40117037    -0.20600
C1538       C  0.34189351  0.49746391  0.39390005    -0.07100
C1539       C  0.36100853  0.97303133  0.38448259     0.13700
C1540       C  0.39313613  0.97542163  0.38519893    -0.20600
C1541       C  0.40702566  0.50098425  0.39485815    -0.07100
C1542       C  0.38906372  0.52704881  0.40180132     0.13700
C1543       C  0.40312772  0.55728251  0.41037403    -0.24000
H1544       H  0.34340974  0.54480414  0.40664775     0.15000
H1545       H  0.40682105  0.95657915  0.37732245     0.15000
C1546       C  0.34680356  0.94444667  0.37225395    -0.23900
H1547       H  0.38540476  0.57450774  0.41601301     0.05200
H1548       H  0.41654304  0.56705239  0.39285076     0.08500
H1549       H  0.41815687  0.55393956  0.42893026     0.08500
H1550       H  0.33127671  0.95067581  0.35466906     0.08500
H1551       H  0.33376584  0.93192904  0.38852323     0.08500
H1552       H  0.36446159  0.92844898  0.36407901     0.05200
C1553       C  0.10755791  0.97601242  0.38516524    -0.20600
C1554       C  0.09161531  0.50219596  0.39715167    -0.07100
C1555       C  0.10985445  0.52705732  0.40665211     0.13700
C1556       C  0.14198220  0.52495285  0.40504975    -0.20600
C1557       C  0.15657580  0.49852967  0.39481534    -0.07100
C1558       C  0.13964503  0.97362277  0.38382597     0.13700
C1559       C  0.15338952  0.94528878  0.37087731    -0.24000
H1560       H  0.09356728  0.95741869  0.37705655     0.15000
H1561       H  0.15586767  0.54404027  0.41229874     0.15000
C1562       C  0.09596683  0.55550855  0.41928670    -0.23900
H1563       H  0.13544714  0.92944833  0.36278476     0.05200
H1564       H  0.16703465  0.93244877  0.38665177     0.08500
H1565       H  0.16708821  0.44847644  0.35752307     0.08500
H1566       H  0.08285829  0.04757788  0.43774812     0.08500
H1567       H  0.08214700  0.56799929  0.40340831     0.08500
H1568       H  0.11385480  0.57159483  0.42706685     0.05200
C1569       C  0.26721605  0.77200285  0.26350450    -0.20600
C1570       C  0.24965153  0.74958025  0.24983724    -0.07100
C1571       C  0.23291528  0.72804106  0.26568650     0.13700
C1572       C  0.23378882  0.72979021  0.29491477    -0.20600
C1573       C  0.25063815  0.75277646  0.30870890    -0.07100
C1574       C  0.26775516  0.77409404  0.29274137     0.13700
C1575       C  0.28735745  0.79849945  0.30623611    -0.24000
H1576       H  0.28024822  0.78826399  0.25116576     0.15000
H1577       H  0.22095862  0.71323286  0.30708939     0.15000
C1578       C  0.21497755  0.70258068  0.25190341    -0.23900
H1579       H  0.30045630  0.81189353  0.29055523     0.05200
H1580       H  0.30416155  0.78770927  0.32076119     0.08500
H1581       H  0.27265427  0.81488491  0.31779276     0.08500
H1582       H  0.23045494  0.68879067  0.23848818     0.08500
H1583       H  0.19611897  0.71231962  0.23898024     0.08500
H1584       H  0.20450084  0.68691958  0.26748581     0.05200
C1585       C  0.27305706  0.85632430  0.17968453    -0.20600
C1586       C  0.24908277  0.84122484  0.16562682    -0.07100
C1587       C  0.22622427  0.85877565  0.15180070     0.13700
C1588       C  0.22793945  0.89090357  0.15261066    -0.20600
C1589       C  0.25194761  0.90600758  0.16664839    -0.07100
C1590       C  0.27476325  0.88843989  0.18051684     0.13700
C1591       C  0.30039338  0.90317192  0.19703914    -0.24000
H1592       H  0.29041569  0.84285598  0.19043871     0.15000
H1593       H  0.21057042  0.90436169  0.14186031     0.15000
C1594       C  0.20057011  0.84400241  0.13534025    -0.23900
H1595       H  0.31485027  0.88583704  0.20793045     0.05200
H1596       H  0.29064553  0.91867303  0.21310071     0.08500
H1597       H  0.31564233  0.91634065  0.18293311     0.08500
H1598       H  0.18541802  0.83076209  0.14947863     0.08500
H1599       H  0.21029652  0.82854840  0.11923374     0.08500
H1600       H  0.18603740  0.86131995  0.12450285     0.05200
C1601       C  0.22549503  0.60628288  0.16048420    -0.20600
C1602       C  0.25320708  0.59111576  0.16664027    -0.07100
C1603       C  0.27981469  0.60892557  0.17225549     0.13700
C1604       C  0.27768018  0.64108384  0.17189751    -0.20600
C1605       C  0.24986926  0.65623900  0.16596457    -0.07100
C1606       C  0.22338791  0.63838129  0.15992913     0.13700
C1607       C  0.19277347  0.65252363  0.15241271    -0.24000
H1608       H  0.20513497  0.59287663  0.15582568     0.15000
H1609       H  0.29804974  0.65451122  0.17646436     0.15000
C1610       C  0.31054261  0.59461552  0.17900944    -0.23900
H1611       H  0.17520938  0.63488394  0.14729664     0.05200
H1612       H  0.19527396  0.66748527  0.13378920     0.08500
H1613       H  0.18389240  0.66597987  0.17028311     0.08500
H1614       H  0.31877181  0.58110382  0.16091653     0.08500
H1615       H  0.30853560  0.57960374  0.19762963     0.08500
H1616       H  0.32833025  0.61217732  0.18368790     0.05200
C1617       C  0.24274606  0.97117679  0.26407740    -0.20600
C1618       C  0.25316211  0.49804264  0.25074037    -0.07100
C1619       C  0.27299383  0.51695480  0.26666232     0.13700
C1620       C  0.27099097  0.51646310  0.29591975    -0.20600
C1621       C  0.25001990  0.49723584  0.30961020    -0.07100
C1622       C  0.24211598  0.96942113  0.29333045     0.13700
C1623       C  0.22957048  0.94068745  0.30660084    -0.24000
H1624       H  0.23421310  0.95215798  0.25169030     0.15000
H1625       H  0.28606932  0.53098496  0.30822128     0.15000
C1626       C  0.29541748  0.53851390  0.25297133    -0.23900
H1627       H  0.22136993  0.92395178  0.29076405     0.05200
H1628       H  0.20984610  0.94651657  0.32014630     0.08500
H1629       H  0.24781436  0.92919230  0.31906529     0.08500
H1630       H  0.28287326  0.55435345  0.23875925     0.08500
H1631       H  0.31265080  0.52529256  0.24096660     0.08500
H1632       H  0.30804813  0.55259684  0.26855895     0.05200
C1633       C  0.02343509  0.73708695  0.29543500    -0.20600
C1634       C  0.50038688  0.75352540  0.31091985    -0.07100
C1635       C  0.47830750  0.76976268  0.29497577     0.13700
C1636       C  0.48059194  0.76976891  0.26581086    -0.20600
C1637       C  0.50420854  0.75389496  0.25211131    -0.07100
C1638       C  0.02546138  0.73736464  0.26620976     0.13700
C1639       C  0.05166074  0.72046717  0.25264148    -0.24000
H1640       H  0.04093529  0.72541363  0.30765988     0.15000
H1641       H  0.46356562  0.78218896  0.25364256     0.15000
C1642       C  0.45134522  0.78625162  0.30774647    -0.23900
H1643       H  0.06631167  0.70844410  0.26824990     0.05200
H1644       H  0.06656764  0.73687714  0.24128808     0.08500
H1645       H  0.04251571  0.70298100  0.23795114     0.08500
H1646       H  0.44999442  0.78358462  0.33067558     0.08500
H1647       H  0.42964510  0.77697086  0.29884708     0.08500
H1648       H  0.45276093  0.81110607  0.30279355     0.05200
C1649       C  0.47847826  0.86242341  0.15950306    -0.20600
C1650       C  0.00302353  0.84626702  0.16753246    -0.07100
C1651       C  0.02923027  0.86373064  0.17521269     0.13700
C1652       C  0.02716940  0.89585931  0.17583629    -0.20600
C1653       C  0.99975697  0.91133125  0.16913376    -0.07100
C1654       C  0.47640327  0.89455801  0.16008752     0.13700
C1655       C  0.44792222  0.90950933  0.14821920    -0.24000
H1656       H  0.45958256  0.84932420  0.15075734     0.15000
H1657       H  0.04729127  0.90902732  0.18175830     0.15000
C1658       C  0.05939924  0.84905135  0.18329854    -0.23900
H1659       H  0.43180296  0.89242302  0.13913321     0.05200
H1660       H  0.45430448  0.92580192  0.13140710     0.08500
H1661       H  0.43546195  0.92185011  0.16494153     0.08500
H1662       H  0.06895470  0.83630433  0.16529055     0.08500
H1663       H  0.05597897  0.83326846  0.20122514     0.08500
H1664       H  0.07681670  0.86634329  0.18967171     0.05200
C1665       C  0.02574058  0.64541709  0.15678286    -0.20600
C1666       C  0.00025707  0.66121271  0.16748544    -0.07100
C1667       C  0.47937579  0.64442917  0.18130541     0.13700
C1668       C  0.48092430  0.61227902  0.18094547    -0.20600
C1669       C  0.00269162  0.59628611  0.16865417    -0.07100
C1670       C  0.02734103  0.61326782  0.15719665     0.13700
C1671       C  0.05507091  0.59788309  0.14468844    -0.24000
H1672       H  0.04454763  0.65833202  0.14780912     0.15000
H1673       H  0.46260028  0.59911873  0.19044360     0.15000
C1674       C  0.45251038  0.65942864  0.19563700    -0.23900
H1675       H  0.07099931  0.61472031  0.13507147     0.05200
H1676       H  0.04769449  0.58159959  0.12818716     0.08500
H1677       H  0.06808085  0.58540818  0.16113603     0.08500
H1678       H  0.43848739  0.67243294  0.18025209     0.08500
H1679       H  0.46094720  0.67508504  0.21226117     0.08500
H1680       H  0.43714732  0.64228065  0.20555532     0.05200
C1681       C  0.47775031  0.51869481  0.29770123    -0.20600
C1682       C  0.50177571  0.50424541  0.31212938    -0.07100
C1683       C  0.02327562  0.98654340  0.29640927     0.13700
C1684       C  0.02248012  0.98751601  0.26714011    -0.20600
C1685       C  0.50092324  0.50519406  0.25315739    -0.07100
C1686       C  0.47677421  0.51913440  0.26840384     0.13700
C1687       C  0.45020423  0.53510366  0.25419431    -0.24000
H1688       H  0.45933126  0.52918475  0.30948300     0.15000
H1689       H  0.03805785  0.97315046  0.25535888     0.15000
C1690       C  0.04662439  0.96631610  0.31080158    -0.23900
H1691       H  0.43458748  0.54611265  0.26946473     0.05200
H1692       H  0.43962245  0.02734292  0.24341737     0.08500
H1693       H  0.45892153  0.55330869  0.24006238     0.08500
H1694       H  0.03485012  0.94820605  0.32301916     0.08500
H1695       H  0.05817322  0.47789313  0.32603513     0.08500
H1696       H  0.06191083  0.95471887  0.29561815     0.05200
O1697       O  0.52692350  0.50366713  0.20928458    -0.72000
O1698       O  0.52723722  0.00336275  0.13059306    -0.72300
O1699       O  0.52782160  0.04766510  0.16951873    -0.72100
O1700       O  0.52637227  0.45989860  0.16979478    -0.72100
O1701       O  0.97442573  0.46106649  0.17005188    -0.72100
O1702       O  0.97686303  0.04784214  0.16776001    -0.72100
O1703       O  0.97664497  0.50378552  0.12974140    -0.72000
O1704       O  0.97624310  0.00565170  0.20833097    -0.72200
V1705       V  0.52629640  0.00412218  0.17025858     1.35200
V1706       V  0.97710048  0.00437324  0.16874597     1.35200
C1707       C  0.00120024  0.00541346  0.22193563     0.77200
C1708       C  0.00096628  0.00268856  0.11576453     0.77300
C1709       C  0.50310851  0.06289704  0.16860383     0.77100
C1710       C  0.50094146  0.44584848  0.16878944     0.77100
O1711       O  0.52591249  0.25330861  0.20480152    -0.72000
O1712       O  0.52578719  0.25410302  0.12574245    -0.72300
O1713       O  0.52639988  0.29720405  0.16566429    -0.72100
O1714       O  0.52527531  0.21029830  0.16502419    -0.72100
O1715       O  0.97495823  0.21045803  0.16762439    -0.72100
O1716       O  0.97620743  0.29749291  0.16736173    -0.72100
O1717       O  0.97632497  0.25377887  0.12776153    -0.72000
O1718       O  0.97489982  0.25394640  0.20711636    -0.72200
V1719       V  0.52484677  0.25376377  0.16527637     1.35200
V1720       V  0.97653982  0.25394383  0.16745639     1.35200
C1721       C  0.99965129  0.25216562  0.22099486     0.77200
C1722       C  0.00160867  0.25377594  0.11487874     0.77300
C1723       C  0.50179686  0.31256643  0.16599826     0.77100
C1724       C  0.50019301  0.19568953  0.16472359     0.77100
O1725       O  0.72597173  0.99864722  0.20678353    -0.72000
O1726       O  0.72480711  0.49815883  0.12780085    -0.72300
O1727       O  0.72533028  0.45507892  0.16789156    -0.72100
O1728       O  0.72513524  0.04205720  0.16691134    -0.72100
O1729       O  0.77489246  0.04141188  0.16609787    -0.76900
O1730       O  0.77521110  0.45430668  0.16710520    -0.72100
O1731       O  0.77286652  0.99806740  0.12639594    -0.72000
O1732       O  0.77718034  0.49889597  0.20606459    -0.72200
V1733       V  0.72704143  0.49860418  0.16737915     1.35200
V1734       V  0.77498303  0.49787703  0.16644127     1.35200
C1735       C  0.75255946  0.49921090  0.21991642     0.77200
C1736       C  0.74936264  0.49731812  0.11388830     0.77300
C1737       C  0.75004024  0.43983623  0.16737915     0.77100
C1738       C  0.75024239  0.05671856  0.16653022     0.77100
O1739       O  0.72170587  0.24735966  0.20819051    -0.72000
O1740       O  0.72050222  0.24978779  0.12886523    -0.72300
O1741       O  0.72128436  0.20516833  0.16743893    -0.72100
O1742       O  0.72092305  0.29221228  0.16968931    -0.72100
O1743       O  0.77072929  0.29238430  0.16739386    -0.72100
O1744       O  0.77103085  0.20526212  0.16888464    -0.72100
O1745       O  0.77042013  0.24801164  0.12871154    -0.72000
O1746       O  0.77152451  0.24972484  0.20780833    -0.72200
V1747       V  0.72204788  0.24866120  0.16854916     1.35200
V1748       V  0.76996518  0.24884289  0.16823265     1.35200
C1749       C  0.74683344  0.24838806  0.22152494     0.77200
C1750       C  0.74534263  0.24875707  0.11533748     0.77300
C1751       C  0.74616529  0.19022863  0.16778198     0.77100
C1752       C  0.74577227  0.30717126  0.16868803     0.77100
O1753       O  0.00119806  0.02927258  0.35631656    -0.72000
O1754       O  0.49993968  0.02604846  0.43712907    -0.72300
O1755       O  0.54385164  0.02766482  0.39811714    -0.72100
O1756       O  0.95735612  0.02890576  0.39538953    -0.72100
O1757       O  0.95549746  0.47733695  0.39596748    -0.72100
O1758       O  0.54359774  0.47712890  0.39595187    -0.72100
O1759       O  0.99868704  0.47664816  0.43602660    -0.72000
O1760       O  0.50106224  0.47800026  0.35561392    -0.72200
V1761       V  0.00086276  0.02741338  0.39594964     1.35200
V1762       V  0.99909119  0.47840225  0.39651000     1.35200
C1763       C  0.00195852  0.00460552  0.34248078     0.77200
C1764       C  0.99957529  0.00220224  0.44856773     0.77300
C1765       C  0.55890322  0.00287850  0.39827114     0.77100
C1766       C  0.94210964  0.00428343  0.39439971     0.77100
O1767       O  0.00055907  0.27466991  0.35480411    -0.72000
O1768       O  0.50424281  0.27699999  0.43210873    -0.72300
O1769       O  0.54610180  0.27723016  0.39111259    -0.72100
O1770       O  0.95919415  0.27587614  0.39581555    -0.72100
O1771       O  0.95781906  0.22614518  0.39472714    -0.72100
O1772       O  0.54520915  0.22746897  0.39200359    -0.72100
O1773       O  0.00191947  0.22491184  0.43410240    -0.72000
O1774       O  0.50181230  0.22904591  0.35206497    -0.72200
V1775       V  0.00262438  0.27371934  0.39437506     1.35200
V1776       V  0.00140366  0.22585707  0.39449633     1.35200
C1777       C  0.99965848  0.24971466  0.34142208     0.77200
C1778       C  0.00339392  0.24983211  0.44748097     0.77300
C1779       C  0.56056744  0.25205901  0.39178328     0.77100
C1780       C  0.94360320  0.25144954  0.39553607     0.77100
O1781       O  0.75029958  0.02395600  0.35340126    -0.72000
O1782       O  0.75016540  0.02555774  0.43267880    -0.72300
O1783       O  0.79370398  0.02500660  0.39315178    -0.72100
O1784       O  0.70654931  0.02432528  0.39303819    -0.72100
O1785       O  0.70553415  0.47507732  0.39263979    -0.72100
O1786       O  0.79262133  0.47428887  0.39588428    -0.72100
O1787       O  0.74758110  0.47529018  0.43374116    -0.72000
O1788       O  0.75060386  0.47387309  0.35474807    -0.72200
V1789       V  0.75015857  0.02376667  0.39305890     1.35200
V1790       V  0.74908423  0.47561348  0.39422261     1.35200
C1791       C  0.74962556  0.99875159  0.34040383     0.77200
C1792       C  0.75077255  0.00086160  0.44652094     0.77300
C1793       C  0.80878775  0.00020027  0.39279973     0.77100
C1794       C  0.69185975  0.99930841  0.39431157     0.77100
O1795       O  0.75348124  0.27655776  0.35526729    -0.72000
O1796       O  0.75212591  0.27777537  0.43455824    -0.72300
O1797       O  0.79625427  0.27609317  0.39569763    -0.72100
O1798       O  0.70916240  0.27820372  0.39390775    -0.72100
O1799       O  0.70793272  0.22851164  0.39624434    -0.72100
O1800       O  0.79499006  0.22636206  0.39457994    -0.72100
O1801       O  0.75267972  0.22790429  0.43505005    -0.72000
O1802       O  0.75013642  0.22684205  0.35589317    -0.72200
V1803       V  0.75270553  0.27621233  0.39489328     1.35200
V1804       V  0.75147714  0.22836484  0.39546507     1.35200
C1805       C  0.75178079  0.25150830  0.34208402     0.77200
C1806       C  0.75261036  0.25297441  0.44826732     0.77300
C1807       C  0.81053291  0.25084353  0.39493123     0.77100
C1808       C  0.69363656  0.25372084  0.39465193     0.77100
O1809       O  0.54236696  0.02478835  0.53273545    -0.72000
O1810       O  0.95485948  0.02454145  0.53310840    -0.72300
O1811       O  0.49959802  0.02393228  0.57312548    -0.72100
O1812       O  0.99799334  0.02591227  0.49305263    -0.72100
O1813       O  0.49939772  0.47314717  0.49233882    -0.72100
O1814       O  0.99586616  0.47380004  0.57250566    -0.72100
O1815       O  0.95395262  0.47452865  0.53117465    -0.72000
O1816       O  0.54142058  0.47261039  0.53374838    -0.72200
V1817       V  0.49868794  0.02327191  0.53359614     1.35200
V1818       V  0.99749494  0.47555354  0.53292729     1.35200
C1819       C  0.55599706  0.49767903  0.53350715     0.77200
C1820       C  0.93893073  0.49931529  0.53195109     0.77300
C1821       C  0.99634512  0.49849729  0.58629113     0.77100
C1822       C  0.99827296  0.50064899  0.48029644     0.77100
O1823       O  0.54721929  0.27413332  0.52963532    -0.72000
O1824       O  0.96019045  0.27405869  0.53074156    -0.72300
O1825       O  0.50353047  0.27324283  0.56869405    -0.72100
O1826       O  0.00397443  0.27479543  0.49143645    -0.72100
O1827       O  0.50347065  0.22551863  0.48858373    -0.72100
O1828       O  0.00531322  0.22498084  0.57077671    -0.72100
O1829       O  0.96092798  0.22436108  0.53180410    -0.72000
O1830       O  0.54708626  0.22438575  0.52844117    -0.72200
V1831       V  0.50361686  0.27325844  0.52918287     1.35200
V1832       V  0.00446087  0.22593242  0.53113240     1.35200
C1833       C  0.56207104  0.24918568  0.52914623     0.77200
C1834       C  0.94558338  0.24896453  0.53137158     0.77300
C1835       C  0.00437819  0.24994306  0.58413766     0.77100
C1836       C  0.00370327  0.24985004  0.47803329     0.77100
O1837       O  0.79241491  0.02614532  0.53223288    -0.72000
O1838       O  0.70523485  0.02656002  0.52791575    -0.72300
O1839       O  0.74679336  0.02643506  0.56965359    -0.72100
O1840       O  0.75085724  0.02623085  0.49040749    -0.72100
O1841       O  0.74670147  0.47558142  0.49086870    -0.72100
O1842       O  0.74833396  0.47517934  0.57001843    -0.72100
O1843       O  0.70383636  0.47498211  0.53118097    -0.72000
O1844       O  0.79119864  0.47589480  0.52984977    -0.72200
V1845       V  0.74883124  0.02539409  0.53003352     1.35200
V1846       V  0.74751114  0.47636157  0.53045377     1.35200
C1847       C  0.80581150  0.50095371  0.53119954     0.77200
C1848       C  0.68876883  0.49978404  0.53015295     0.77300
C1849       C  0.74696522  0.50000166  0.58353245     0.77100
C1850       C  0.74758499  0.50053733  0.47743272     0.77100
O1851       O  0.70998571  0.27739827  0.53227305    -0.72000
O1852       O  0.79705329  0.27736419  0.53221502    -0.72300
O1853       O  0.75319067  0.27787475  0.49246929    -0.72100
O1854       O  0.75373027  0.27682223  0.57185154    -0.72100
O1855       O  0.75372666  0.22694683  0.57123718    -0.72100
O1856       O  0.75336265  0.22800364  0.49216745    -0.72100
O1857       O  0.79715979  0.22766145  0.53186083    -0.72000
O1858       O  0.70996933  0.22762901  0.53162971    -0.72200
V1859       V  0.75350999  0.27641134  0.53217657     1.35200
V1860       V  0.75355595  0.22853505  0.53172092     1.35200
C1861       C  0.69506987  0.25255068  0.53209297     0.77200
C1862       C  0.81209143  0.25257362  0.53227070     0.77300
C1863       C  0.75308318  0.25303398  0.47885692     0.77100
C1864       C  0.75377399  0.25163711  0.58498027     0.77100
O1865       O  0.97597483  0.00278997  0.07164389    -0.72000
O1866       O  0.97868620  0.50076610  0.99348233    -0.72300
O1867       O  0.97836253  0.45845937  0.03428183    -0.72100
O1868       O  0.97755273  0.04593388  0.03166114    -0.72100
O1869       O  0.52691092  0.04560662  0.03331928    -0.72100
O1870       O  0.52829134  0.45854777  0.03187842    -0.72100
O1871       O  0.52544221  0.00215216  0.99350638    -0.72000
O1872       O  0.52966001  0.50191213  0.07196760    -0.72200
V1873       V  0.97935943  0.50204925  0.03300026     1.35200
V1874       V  0.52843957  0.50212499  0.03222882     1.35200
C1875       C  0.00262788  0.50290976  0.08636273     0.77200
C1876       C  0.00368437  0.50099146  0.98022903     0.77300
C1877       C  0.00330470  0.44355464  0.03431252     0.77100
C1878       C  0.00296705  0.06008938  0.03198261     0.77100
O1879       O  0.52617073  0.20901987  0.03020251    -0.72000
O1880       O  0.52789350  0.29621837  0.02816648    -0.72300
O1881       O  0.52631578  0.25367400  0.06868481    -0.72100
O1882       O  0.52807003  0.25165349  0.98964946    -0.72100
O1883       O  0.98096395  0.25306611  0.99090077    -0.72100
O1884       O  0.97800481  0.25317644  0.07009112    -0.72100
O1885       O  0.98062287  0.29661057  0.03070800    -0.72000
O1886       O  0.97836677  0.20966333  0.03047115    -0.72200
V1887       V  0.52614137  0.25265192  0.02915026     1.35200
V1888       V  0.98046914  0.25310682  0.03053368     1.35200
C1889       C  0.00270371  0.19391494  0.03167915     0.77200
C1890       C  0.00591575  0.31085574  0.03125933     0.77300
C1891       C  0.00250913  0.25318519  0.08434497     0.77100
C1892       C  0.00636319  0.25177224  0.97827313     0.77100
O1893       O  0.77321663  0.49657785  0.06962113    -0.72000
O1894       O  0.77037344  0.99656151  0.99034505    -0.72300
O1895       O  0.77099336  0.04078702  0.02916172    -0.72100
O1896       O  0.77159058  0.45323193  0.02991721    -0.72100
O1897       O  0.72177003  0.45412702  0.03009540    -0.72100
O1898       O  0.72115861  0.04117255  0.03061332    -0.72100
O1899       O  0.72183225  0.49810659  0.99090497    -0.72000
O1900       O  0.72139750  0.99710637  0.06976226    -0.72200
V1901       V  0.77144712  0.49678040  0.03008981     1.35200
V1902       V  0.72351144  0.49765147  0.03054585     1.35200
C1903       C  0.74854356  0.49695908  0.08335555     0.77200
C1904       C  0.74661513  0.49752029  0.97728693     0.77300
C1905       C  0.74619157  0.05586797  0.02979081     0.77100
C1906       C  0.74639222  0.43875789  0.02969751     0.77100
O1907       O  0.77053012  0.24674773  0.07178962    -0.72000
O1908       O  0.77216423  0.24621084  0.99278967    -0.72300
O1909       O  0.77232719  0.28996320  0.03202339    -0.72100
O1910       O  0.77015919  0.20293884  0.03241607    -0.72100
O1911       O  0.72028873  0.20414569  0.03244572    -0.72100
O1912       O  0.72257042  0.29124101  0.03000264    -0.72100
O1913       O  0.72222311  0.24643934  0.99154064    -0.72000
O1914       O  0.72063288  0.24899737  0.07089449    -0.72200
V1915       V  0.77030288  0.24647814  0.03225694     1.35200
V1916       V  0.72236675  0.24767653  0.03123983     1.35200
C1917       C  0.74540608  0.24819825  0.08478557     0.77200
C1918       C  0.74755038  0.24612185  0.97872784     0.77300
C1919       C  0.74786221  0.30554372  0.03087123     0.77100
C1920       C  0.74486021  0.18867179  0.03261089     0.77100
O1921       O  0.97620825  0.49841579  0.85742716    -0.72000
O1922       O  0.97572629  0.00156983  0.93502311    -0.72300
O1923       O  0.97593753  0.04409062  0.89447110    -0.72100
O1924       O  0.97859939  0.45600841  0.89766992    -0.72100
O1925       O  0.52629944  0.45831511  0.89435255    -0.72100
O1926       O  0.52300768  0.04509113  0.89670740    -0.72100
O1927       O  0.52757487  0.50121929  0.93464567    -0.72000
O1928       O  0.52117239  0.00275024  0.85644154    -0.72200
V1929       V  0.97652350  0.00056033  0.89543724     1.35200
V1930       V  0.52163701  0.00169979  0.89608842     1.35200
C1931       C  0.00015233  0.99992430  0.84242011     0.77200
C1932       C  0.00074714  0.00095198  0.94850779     0.77300
C1933       C  0.00091553  0.05886758  0.89498452     0.77100
C1934       C  0.00383762  0.44178573  0.89638259     0.77100
O1935       O  0.98379808  0.25155152  0.85463701    -0.72000
O1936       O  0.98256205  0.25074749  0.93372313    -0.72300
O1937       O  0.98402106  0.29445904  0.89449268    -0.72100
O1938       O  0.98269360  0.20747827  0.89382667    -0.72100
O1939       O  0.53011159  0.20787707  0.89359384    -0.72100
O1940       O  0.53115778  0.29490736  0.89192666    -0.72100
O1941       O  0.52962666  0.25223571  0.93230491    -0.72000
O1942       O  0.53163784  0.25026854  0.85307400    -0.72200
V1943       V  0.98424920  0.25100527  0.89419209     1.35200
V1944       V  0.52969010  0.25136675  0.89267781     1.35200
C1945       C  0.00884884  0.25043506  0.84148644     0.77200
C1946       C  0.00724170  0.25108391  0.94770237     0.77300
C1947       C  0.00916429  0.30900475  0.89464985     0.77100
C1948       C  0.00738529  0.19213688  0.89457479     0.77100
O1949       O  0.72157149  0.49578414  0.85397888    -0.72000
O1950       O  0.72081921  0.99725062  0.93242199    -0.72300
O1951       O  0.72224898  0.04017736  0.89216689    -0.72100
O1952       O  0.72167205  0.45335133  0.89466732    -0.72100
O1953       O  0.77139448  0.45343081  0.89350222    -0.72100
O1954       O  0.77206505  0.03969895  0.89418356    -0.72100
O1955       O  0.77134258  0.49650766  0.93343490    -0.72000
O1956       O  0.77253621  0.99660182  0.85437198    -0.72200
V1957       V  0.72247385  0.49687106  0.89357876     1.35200
V1958       V  0.77039719  0.49703392  0.89388370     1.35200
C1959       C  0.74652527  0.49719069  0.84066330     0.77200
C1960       C  0.74554961  0.99676622  0.94637480     0.77300
C1961       C  0.74728735  0.05482848  0.89297248     0.77100
C1962       C  0.74653041  0.43837479  0.89437247     0.77100
O1963       O  0.72826196  0.24638242  0.85454184    -0.72000
O1964       O  0.72431861  0.24590852  0.93371357    -0.72300
O1965       O  0.72639040  0.28974276  0.89428421    -0.72100
O1966       O  0.72634485  0.20258498  0.89386512    -0.72100
O1967       O  0.77614229  0.20260953  0.89620208    -0.72100
O1968       O  0.77610009  0.28966881  0.89649962    -0.72100
O1969       O  0.77422662  0.24589192  0.93583229    -0.72000
O1970       O  0.77803840  0.24646052  0.85677746    -0.72200
V1971       V  0.72727835  0.24615149  0.89414899     1.35200
V1972       V  0.77515118  0.24614249  0.89628472     1.35200
C1973       C  0.75382608  0.24667547  0.84210478     0.77200
C1974       C  0.74866574  0.24589423  0.94820441     0.77300
C1975       C  0.75130174  0.30470815  0.89536282     0.77100
C1976       C  0.75127564  0.18769326  0.89508021     0.77100
O1977       O  0.99490565  0.47231008  0.70928314    -0.72000
O1978       O  0.49513733  0.47069438  0.62951494    -0.72300
O1979       O  0.53823963  0.47048499  0.66967042    -0.72100
O1980       O  0.95099591  0.47380097  0.66978570    -0.72100
O1981       O  0.95350825  0.02293638  0.66852826    -0.72100
O1982       O  0.53996270  0.02429276  0.67083090    -0.72100
O1983       O  0.99739413  0.02259043  0.62946950    -0.72000
O1984       O  0.49520517  0.02523476  0.70925984    -0.72200
V1985       V  0.99459106  0.47365524  0.66969486     1.35200
V1986       V  0.99702437  0.02091625  0.66902931     1.35200
C1987       C  0.99548826  0.49701399  0.72304268     0.77200
C1988       C  0.99551073  0.49809187  0.61681609     0.77300
C1989       C  0.55356733  0.49509937  0.66906896     0.77100
C1990       C  0.93679070  0.49911095  0.66938417     0.77100
O1991       O  0.50340191  0.27489833  0.70436502    -0.72000
O1992       O  0.00400365  0.27528734  0.62781903    -0.72300
O1993       O  0.95956958  0.27396885  0.66633802    -0.72100
O1994       O  0.54763354  0.27443718  0.66581857    -0.72100
O1995       O  0.54820051  0.22459110  0.66564601    -0.72100
O1996       O  0.96161140  0.22428096  0.66906669    -0.72100
O1997       O  0.50391856  0.22323528  0.62615251    -0.72000
O1998       O  0.00661677  0.22671239  0.70767259    -0.72200
V1999       V  0.00316731  0.27485421  0.66738371     1.35200
V2000       V  0.00519859  0.22701523  0.66805319     1.35200
C2001       C  0.00455536  0.25174587  0.72083743     0.77200
C2002       C  0.00416628  0.25017646  0.61468223     0.77300
C2003       C  0.94570252  0.24853181  0.66781273     0.77100
C2004       C  0.56276638  0.24967012  0.66643998     0.77100
O2005       O  0.74379638  0.47356354  0.70635740    -0.72000
O2006       O  0.74711689  0.47460822  0.62729986    -0.72300
O2007       O  0.78898656  0.47374296  0.66861735    -0.72100
O2008       O  0.70199818  0.47450353  0.66525709    -0.72100
O2009       O  0.70367905  0.02621601  0.66808256    -0.72100
O2010       O  0.79080451  0.02355329  0.66625420    -0.72100
O2011       O  0.74619788  0.02585710  0.62746013    -0.72000
O2012       O  0.74851112  0.02398035  0.70675282    -0.72200
V2013       V  0.74550302  0.47506487  0.66685912     1.35200
V2014       V  0.74724002  0.02397155  0.66709949     1.35200
C2015       C  0.74478375  0.49821531  0.72015477     0.77200
C2016       C  0.74653075  0.49970210  0.61406802     0.77300
C2017       C  0.80410566  0.49847664  0.66836610     0.77100
C2018       C  0.68716789  0.49942662  0.66639627     0.77100
O2019       O  0.75612090  0.27298285  0.70862526    -0.72000
O2020       O  0.75231736  0.27537647  0.62948646    -0.72300
O2021       O  0.71042467  0.27386964  0.67053554    -0.72100
O2022       O  0.79772736  0.27424919  0.66740550    -0.72100
O2023       O  0.79790762  0.22447200  0.66938079    -0.72100
O2024       O  0.71075421  0.22427837  0.66632040    -0.72100
O2025       O  0.75560275  0.22561027  0.62838287    -0.72000
O2026       O  0.75273179  0.22323485  0.70748430    -0.72200
V2027       V  0.75413346  0.27319483  0.66903397     1.35200
V2028       V  0.75427653  0.22534231  0.66794532     1.35200
C2029       C  0.75430583  0.24772915  0.72149238     0.77200
C2030       C  0.75389953  0.25088536  0.61549923     0.77300
C2031       C  0.69569181  0.24897344  0.66805227     0.77100
C2032       C  0.81270682  0.24939031  0.66799183     0.77100
C2033       C  0.86257285  0.22798042  0.68400540    -0.20600
C2034       C  0.84670827  0.24927591  0.66729325    -0.07100
C2035       C  0.86355902  0.26948776  0.65003441     0.13700
C2036       C  0.89579332  0.26849100  0.65064598    -0.20600
C2037       C  0.91168968  0.24752532  0.66767311    -0.07100
C2038       C  0.89483730  0.22687897  0.68450798     0.13700
C2039       C  0.91060245  0.20446308  0.70383366    -0.24000
H2040       H  0.84961405  0.21244459  0.69713833     0.15000
H2041       H  0.90872607  0.28401395  0.63747615     0.15000
C2042       C  0.84781916  0.29133125  0.63013640    -0.23900
H2043       H  0.89383823  0.19135408  0.71654725     0.05200
H2044       H  0.92610821  0.21698791  0.71835773     0.08500
H2045       H  0.92406519  0.18764191  0.69157185     0.08500
H2046       H  0.83450328  0.30867295  0.64191167     0.08500
H2047       H  0.83218983  0.27837872  0.61603880     0.08500
H2048       H  0.86459370  0.30386641  0.61696190     0.05200
C2049       C  0.61259243  0.22989870  0.64988735    -0.20600
C2050       C  0.59669535  0.24980011  0.66769155    -0.07100
C2051       C  0.61354319  0.26907344  0.68599993     0.13700
C2052       C  0.64577832  0.26874450  0.68510663    -0.20600
C2053       C  0.66167956  0.24875804  0.66737101    -0.07100
C2054       C  0.64482858  0.22907574  0.64946731     0.13700
C2055       C  0.66054148  0.20799185  0.62909209    -0.24000
H2056       H  0.59964897  0.21516895  0.63590298     0.15000
H2057       H  0.65863649  0.28351634  0.69912895     0.15000
C2058       C  0.59866543  0.28910080  0.70774829    -0.23900
H2059       H  0.64374607  0.19582059  0.61553001     0.05200
H2060       H  0.67396677  0.19029113  0.64050554     0.08500
H2061       H  0.67603699  0.22146101  0.61539823     0.08500
H2062       H  0.57350430  0.28599431  0.70922636     0.08500
H2063       H  0.60357361  0.31357886  0.70312909     0.08500
H2064       H  0.60834109  0.28338243  0.72861227     0.05200
C2065       C  0.88712006  0.47754142  0.68456016    -0.20600
C2066       C  0.90287155  0.49981710  0.66907032    -0.07100
C2067       C  0.88698047  0.02318504  0.65468520     0.13700
C2068       C  0.85477341  0.02199058  0.65483936    -0.20600
C2069       C  0.83803209  0.49828420  0.66914030    -0.07100
C2070       C  0.85492709  0.47658610  0.68498960     0.13700
C2071       C  0.83933799  0.45307823  0.70319616    -0.24000
H2072       H  0.90013450  0.46098752  0.69672230     0.15000
H2073       H  0.84181635  0.04037650  0.64505841     0.15000
C2074       C  0.90240416  0.04984177  0.64034670    -0.23900
H2075       H  0.85620455  0.43946457  0.71552751     0.05200
H2076       H  0.82603281  0.43675499  0.69013986     0.08500
H2077       H  0.82375665  0.46473552  0.71809521     0.08500
H2078       H  0.91787259  0.04126176  0.62373338     0.08500
H2079       H  0.91572503  0.06350689  0.65572603     0.08500
H2080       H  0.88545765  0.06557341  0.63046128     0.05200
C2081       C  0.60444742  0.02586428  0.67861337    -0.20600
C2082       C  0.58778202  0.49521444  0.66832400    -0.07100
C2083       C  0.60581878  0.46813649  0.66717412     0.13700
C2084       C  0.63795095  0.47058175  0.66642382    -0.20600
C2085       C  0.65293633  0.49918219  0.66665511    -0.07100
C2086       C  0.63662627  0.02784278  0.67767670     0.13700
C2087       C  0.65167861  0.05716932  0.68732499    -0.24000
H2088       H  0.59140313  0.04546217  0.68585207     0.15000
H2089       H  0.65148891  0.44973183  0.66572235     0.15000
C2090       C  0.59183993  0.43646127  0.66660797    -0.23900
H2091       H  0.63459202  0.07412075  0.69490266     0.05200
H2092       H  0.66418587  0.06801106  0.66976541     0.08500
H2093       H  0.66779628  0.05224889  0.70481132     0.08500
H2094       H  0.57685005  0.43396788  0.64792643     0.08500
H2095       H  0.57839135  0.43248027  0.68589235     0.08500
H2096       H  0.60960891  0.41820239  0.66554044     0.05200
C2097       C  0.73028522  0.23386869  0.79632721    -0.20600
C2098       C  0.75500679  0.24690828  0.81114905    -0.07100
C2099       C  0.77955532  0.26035649  0.79607160     0.13700
C2100       C  0.77853593  0.26044337  0.76677247    -0.20600
C2101       C  0.75407322  0.24694720  0.75219354    -0.07100
C2102       C  0.72960977  0.23356341  0.76706182     0.13700
C2103       C  0.70229759  0.21988163  0.75211295    -0.24000
H2104       H  0.71139675  0.22366679  0.80770581     0.15000
H2105       H  0.79711212  0.27083782  0.75509808     0.15000
C2106       C  0.80648220  0.27541745  0.81047871    -0.23900
H2107       H  0.68469883  0.21143316  0.76695961     0.05200
H2108       H  0.70972471  0.20017998  0.73915274     0.08500
H2109       H  0.69138357  0.23749372  0.73852072     0.08500
H2110       H  0.81969142  0.25811013  0.82259409     0.08500
H2111       H  0.79817898  0.29378621  0.82457746     0.08500
H2112       H  0.82254477  0.28603450  0.79533739     0.05200
C2113       C  0.77512266  0.38914738  0.89057603    -0.20600
C2114       C  0.74692939  0.40412255  0.89492971    -0.07100
C2115       C  0.72037425  0.38601840  0.89985771     0.13700
C2116       C  0.72285828  0.35388873  0.89992719    -0.20600
C2117       C  0.75101115  0.33893404  0.89539624    -0.07100
C2118       C  0.77762156  0.35701898  0.89076505     0.13700
C2119       C  0.80879652  0.34304719  0.88558323    -0.24000
H2120       H  0.79556410  0.40269873  0.88682776     0.15000
H2121       H  0.70244493  0.34030312  0.90371397     0.15000
C2122       C  0.68925436  0.39994063  0.90540600    -0.23900
H2123       H  0.82657142  0.36078055  0.88157664     0.05200
H2124       H  0.80779175  0.32790888  0.86700033     0.08500
H2125       H  0.81638255  0.32977044  0.90416418     0.08500
H2126       H  0.68142341  0.41329482  0.88695336     0.08500
H2127       H  0.69048389  0.41497050  0.92406839     0.08500
H2128       H  0.67154153  0.38217467  0.90952688     0.05200
C2129       C  0.77166740  0.10364550  0.90753317    -0.20600
C2130       C  0.74781196  0.08882259  0.89303768    -0.07100
C2131       C  0.72540303  0.10671578  0.87895401     0.13700
C2132       C  0.72729660  0.13883354  0.88010673    -0.20600
C2133       C  0.75107357  0.15367539  0.89469821    -0.07100
C2134       C  0.77358824  0.13576976  0.90865456     0.13700
C2135       C  0.79912148  0.15012639  0.92556230    -0.24000
H2136       H  0.78872652  0.08996110  0.91845722     0.15000
H2137       H  0.71020755  0.15250477  0.86921115     0.15000
C2138       C  0.69999048  0.09233010  0.86190667    -0.23900
H2139       H  0.81346512  0.13255789  0.93625502     0.05200
H2140       H  0.78929022  0.16533685  0.94180638     0.08500
H2141       H  0.81451824  0.16350654  0.91175572     0.08500
H2142       H  0.68434705  0.07916885  0.87565593     0.08500
H2143       H  0.70994135  0.07688477  0.84590460     0.08500
H2144       H  0.68589397  0.10987165  0.85090040     0.05200
C2145       C  0.72614437  0.47848701  0.79550294    -0.20600
C2146       C  0.74642064  0.49794715  0.80986288    -0.07100
C2147       C  0.76992201  0.01510273  0.79425322     0.13700
C2148       C  0.76844277  0.01538734  0.76498201    -0.20600
C2149       C  0.74450640  0.49778787  0.75097240    -0.07100
C2150       C  0.72508959  0.47794436  0.76623775     0.13700
C2151       C  0.70252204  0.45687500  0.75190514    -0.24000
H2152       H  0.71131169  0.46331881  0.80728563     0.15000
H2153       H  0.78482003  0.02894397  0.75326739     0.15000
C2154       C  0.79386240  0.03450854  0.80869231    -0.23900
H2155       H  0.68793056  0.44443519  0.76713345     0.05200
H2156       H  0.71497632  0.43941879  0.73950306     0.08500
H2157       H  0.68619315  0.97792976  0.73740103     0.08500
H2158       H  0.80444609  0.52828434  0.82100874     0.08500
H2159       H  0.78256926  0.05079704  0.82319566     0.08500
H2160       H  0.80753840  0.04811338  0.79357927     0.05200
C2161       C  0.49042372  0.27349510  0.79403851    -0.20600
C2162       C  0.00873563  0.25072793  0.81062650    -0.07100
C2163       C  0.02757699  0.23101662  0.79473594     0.13700
C2164       C  0.02553638  0.23183245  0.76548871    -0.20600
C2165       C  0.00545005  0.25209729  0.75170384    -0.07100
C2166       C  0.48924445  0.27425946  0.76478516     0.13700
C2167       C  0.47049625  0.29903259  0.75074852    -0.24000
H2168       H  0.47826507  0.29076308  0.80594169     0.15000
H2169       H  0.03990120  0.21667294  0.75326391     0.15000
C2170       C  0.04889033  0.20821078  0.80844040    -0.23900
H2171       H  0.45841362  0.31367934  0.76614615     0.05200
H2172       H  0.45286122  0.28850855  0.73692923     0.08500
H2173       H  0.48567895  0.31424479  0.73837464     0.08500
H2174       H  0.03553223  0.19290255  0.82237958     0.08500
H2175       H  0.06679053  0.22039454  0.82071431     0.08500
H2176       H  0.06077122  0.19364189  0.79285574     0.05200
C2177       C  0.52918729  0.39404984  0.90244708    -0.20600
C2178       C  0.00483050  0.40782083  0.89555511    -0.07100
C2179       C  0.98061131  0.39007816  0.88407750     0.13700
C2180       C  0.98310518  0.35803805  0.88394953    -0.20600
C2181       C  0.00914548  0.34302302  0.89470888    -0.07100
C2182       C  0.53171275  0.36194827  0.90182472     0.13700
C2183       C  0.56141727  0.34753013  0.91155574    -0.24000
H2184       H  0.54860569  0.40750106  0.90965902     0.15000
H2185       H  0.96450380  0.34456053  0.87515441     0.15000
C2186       C  0.95238576  0.40448883  0.87114507    -0.23900
H2187       H  0.57810367  0.36495559  0.91913581     0.05200
H2188       H  0.57239701  0.33511529  0.89403724     0.08500
H2189       H  0.55691808  0.33143451  0.92903178     0.08500
H2190       H  0.95922737  0.42073013  0.85442118     0.08500
H2191       H  0.93896024  0.41671330  0.88730121     0.08500
H2192       H  0.93694269  0.38706537  0.86163086     0.05200
C2193       C  0.52675163  0.10853258  0.88778942    -0.20600
C2194       C  0.00161329  0.09301055  0.89468692    -0.07100
C2195       C  0.97566225  0.11141892  0.90089395     0.13700
C2196       C  0.97854403  0.14348818  0.90060970    -0.20600
C2197       C  0.00655413  0.15799683  0.89448659    -0.07100
C2198       C  0.52975129  0.14054388  0.88661349     0.13700
C2199       C  0.56017154  0.15378225  0.87762617    -0.24000
H2200       H  0.54623558  0.09441219  0.88210327     0.15000
H2201       H  0.95863586  0.15737151  0.90552071     0.15000
C2202       C  0.94491079  0.09783135  0.90840382    -0.23900
H2203       H  0.57687896  0.13560937  0.87188767     0.05200
H2204       H  0.07268145  0.16604252  0.89921166     0.08500
H2205       H  0.55687895  0.16871054  0.85910722     0.08500
H2206       H  0.94741375  0.08268861  0.92693218     0.08500
H2207       H  0.43287037  0.08617351  0.89651610     0.08500
H2208       H  0.92777175  0.11579505  0.91362052     0.05200
C2209       C  0.48072485  0.47802605  0.79888099    -0.20600
C2210       C  0.99976301  0.99934558  0.81172952    -0.07100
C2211       C  0.01371214  0.02251734  0.79550907     0.13700
C2212       C  0.01231647  0.02052080  0.76634601    -0.20600
C2213       C  0.99650587  0.49698856  0.75403590    -0.07100
C2214       C  0.47950392  0.47544494  0.76967523     0.13700
C2215       C  0.46077999  0.44991250  0.75690555    -0.24000
H2216       H  0.46894561  0.46125800  0.81169680     0.15000
H2217       H  0.02298615  0.03844067  0.75402039     0.15000
C2218       C  0.02928456  0.05022886  0.80805578    -0.23900
H2219       H  0.44875688  0.43615175  0.77303424     0.05200
H2220       H  0.47596146  0.43408319  0.74522215     0.08500
H2221       H  0.95045203  0.45179526  0.74383559     0.08500
H2222       H  0.55150743  0.05179149  0.80488540     0.08500
H2223       H  0.02803792  0.05100910  0.83110576     0.08500
H2224       H  0.01812080  0.07140788  0.80000888     0.05200
C2225       C  0.77179453  0.38921402  0.04042919    -0.20600
C2226       C  0.74612561  0.40468673  0.02944128    -0.07100
C2227       C  0.72141689  0.38731995  0.01832230     0.13700
C2228       C  0.72291244  0.35514703  0.01905648    -0.20600
C2229       C  0.74846093  0.33964808  0.03031856    -0.07100
C2230       C  0.77337110  0.35706242  0.04105023     0.13700
C2231       C  0.80142613  0.34226778  0.05389727    -0.24000
H2232       H  0.79072945  0.40241948  0.04897353     0.15000
H2233       H  0.70396287  0.34196516  0.01051426     0.15000
C2234       C  0.69374882  0.40224890  0.00491017    -0.23900
H2235       H  0.81774069  0.35955086  0.06236740     0.05200
H2236       H  0.81391758  0.32883514  0.03790250     0.08500
H2237       H  0.79452000  0.32708431  0.07140151     0.08500
H2238       H  0.70119528  0.41762521  0.98772652     0.08500
H2239       H  0.68076634  0.41554275  0.02066620     0.08500
H2240       H  0.67771688  0.38503775  0.99588871     0.05200
C2241       C  0.76707749  0.13952056  0.01676328    -0.20600
C2242       C  0.74438619  0.15470990  0.03220179    -0.07100
C2243       C  0.72227053  0.13722782  0.04680868     0.13700
C2244       C  0.72345465  0.10505691  0.04545508    -0.20600
C2245       C  0.74625175  0.08986103  0.03009082    -0.07100
C2246       C  0.76824488  0.10739288  0.01536215     0.13700
C2247       C  0.79234603  0.09260843  0.99731157    -0.24000
H2248       H  0.78380950  0.15294726  0.00534327     0.15000
H2249       H  0.70670073  0.09163522  0.05684663     0.15000
C2250       C  0.69808614  0.15216037  0.06465536    -0.23900
H2251       H  0.80626597  0.10994667  0.98601966     0.05200
H2252       H  0.78116409  0.07763869  0.98150522     0.08500
H2253       H  0.80838227  0.07887721  0.01036537     0.08500
H2254       H  0.68224202  0.16593519  0.05144124     0.08500
H2255       H  0.70922061  0.16718859  0.08043560     0.08500
H2256       H  0.68403599  0.13491591  0.07594961     0.05200
C2257       C  0.52447203  0.39519725  0.01539806    -0.20600
C2258       C  0.00367221  0.40958445  0.03429329    -0.07100
C2259       C  0.98172406  0.39184702  0.04883980     0.13700
C2260       C  0.98322272  0.35972358  0.04740250    -0.20600
C2261       C  0.00632505  0.34479287  0.03222353    -0.07100
C2262       C  0.52525549  0.36306018  0.01348493     0.13700
C2263       C  0.54853438  0.34823181  0.99461290    -0.24000
H2264       H  0.54100099  0.40866828  0.00378791     0.15000
H2265       H  0.96639308  0.34611094  0.05851364     0.15000
C2266       C  0.95739011  0.40644999  0.06674170    -0.23900
H2267       H  0.56223732  0.36554746  0.98305954     0.05200
H2268       H  0.53658827  0.33356157  0.97904053     0.08500
H2269       H  0.56479731  0.33409718  0.00706198     0.08500
H2270       H  0.94124531  0.41992448  0.05357807     0.08500
H2271       H  0.96838923  0.42169335  0.08242742     0.08500
H2272       H  0.94369072  0.38902520  0.07816401     0.05200
C2273       C  0.52668480  0.14504848  0.04060285    -0.20600
C2274       C  0.00193884  0.15965773  0.03176481    -0.07100
C2275       C  0.97429382  0.14238788  0.03047276     0.13700
C2276       C  0.97572851  0.11020974  0.03057954    -0.20600
C2277       C  0.00382378  0.09433973  0.03193831    -0.07100
C2278       C  0.52817651  0.11287770  0.04198350     0.13700
C2279       C  0.55681155  0.09830169  0.05394183    -0.24000
H2280       H  0.54622841  0.15836837  0.04773031     0.15000
H2281       H  0.95446272  0.09732548  0.02955642     0.15000
C2282       C  0.94298585  0.15721822  0.02896535    -0.23900
H2283       H  0.57352284  0.11573437  0.06146076     0.05200
H2284       H  0.56851301  0.08451295  0.03771161     0.08500
H2285       H  0.55073581  0.08348460  0.07195899     0.08500
H2286       H  0.94110000  0.17147731  0.00981777     0.08500
H2287       H  0.93916624  0.17151824  0.04778128     0.08500
H2288       H  0.92420297  0.13998181  0.02812065     0.05200
C2289       C  0.89636811  0.27622018  0.53915467    -0.20600
C2290       C  0.91141549  0.24886137  0.53191115    -0.07100
C2291       C  0.89349733  0.22268178  0.52522486     0.13700
C2292       C  0.86133342  0.22486278  0.52563663    -0.20600
C2293       C  0.84628029  0.25233942  0.53253740    -0.07100
C2294       C  0.86421897  0.27838438  0.53964770     0.13700
C2295       C  0.85006658  0.30852230  0.54821191    -0.24000
H2296       H  0.90989837  0.29622115  0.54463116     0.15000
H2297       H  0.84781324  0.20483590  0.52022526     0.15000
C2298       C  0.90770864  0.19243224  0.51708767    -0.23900
H2299       H  0.86774143  0.32566674  0.55432212     0.05200
H2300       H  0.83482673  0.30500267  0.56643535     0.08500
H2301       H  0.83679483  0.31844365  0.53053696     0.08500
H2302       H  0.92131077  0.18302962  0.53479561     0.08500
H2303       H  0.92264192  0.19561547  0.49859689     0.08500
H2304       H  0.89004922  0.17503304  0.51157166     0.05200
C2305       C  0.61105858  0.27419321  0.54258107    -0.20600
C2306       C  0.59611804  0.24926897  0.52985802    -0.07100
C2307       C  0.61397049  0.22543621  0.51808451     0.13700
C2308       C  0.64610260  0.22735830  0.51924452    -0.20600
C2309       C  0.66104033  0.25233435  0.53183908    -0.07100
C2310       C  0.64321650  0.27601231  0.54389903     0.13700
C2311       C  0.65765439  0.30279669  0.55895499    -0.24000
H2312       H  0.59744389  0.29227758  0.55189395     0.15000
H2313       H  0.65970917  0.20926513  0.50993571     0.15000
C2314       C  0.59959819  0.19825572  0.50360087    -0.23900
H2315       H  0.64010222  0.31791558  0.56856122     0.05200
H2316       H  0.67098397  0.31703564  0.54411483     0.08500
H2317       H  0.67295706  0.29430714  0.57591057     0.08500
H2318       H  0.58395859  0.20628902  0.48675543     0.08500
H2319       H  0.58659852  0.18420963  0.51883354     0.08500
H2320       H  0.61713149  0.18311350  0.49399664     0.05200
C2321       C  0.89069779  0.01984952  0.54904886    -0.20600
C2322       C  0.90488171  0.49928516  0.53126612    -0.07100
C2323       C  0.88772327  0.47789904  0.51530940     0.13700
C2324       C  0.85548537  0.47906894  0.51583681    -0.20600
C2325       C  0.83986335  0.50121132  0.53158134    -0.07100
C2326       C  0.85846191  0.02076776  0.55001284     0.13700
C2327       C  0.84312986  0.04203230  0.57045754    -0.24000
H2328       H  0.90396907  0.03492077  0.56246801     0.15000
H2329       H  0.84234134  0.46281045  0.50351231     0.15000
C2330       C  0.90306519  0.45448195  0.49689310    -0.23900
H2331       H  0.86019318  0.05444170  0.58353571     0.05200
H2332       H  0.82804444  0.02865117  0.58459568     0.08500
H2333       H  0.82931056  0.05949913  0.55914596     0.08500
H2334       H  0.91645622  0.43801975  0.50978099     0.08500
H2335       H  0.91849966  0.46619329  0.48187800     0.08500
H2336       H  0.88604035  0.44098779  0.48469508     0.05200
C2337       C  0.60615364  0.01983439  0.51368491    -0.20600
C2338       C  0.58996557  0.49808046  0.53338878    -0.07100
C2339       C  0.60771659  0.47913292  0.55125410     0.13700
C2340       C  0.63991766  0.47992619  0.54943648    -0.20600
C2341       C  0.65479774  0.49955190  0.53060070    -0.07100
C2342       C  0.63834287  0.02066655  0.51159100     0.13700
C2343       C  0.65287616  0.04079771  0.48971754    -0.24000
H2344       H  0.59229166  0.03402058  0.49991481     0.15000
H2345       H  0.65361257  0.46557590  0.56319828     0.15000
C2346       C  0.59294743  0.45902480  0.57302778    -0.23900
H2347       H  0.63531746  0.05268284  0.47672284     0.05200
H2348       H  0.66728446  0.02663719  0.47565555     0.08500
H2349       H  0.66729062  0.05865876  0.49978925     0.08500
H2350       H  0.57871159  0.44108503  0.56286782     0.08500
H2351       H  0.57831158  0.47320097  0.58688586     0.08500
H2352       H  0.61035921  0.44724720  0.58627658     0.05200
C2353       C  0.89385002  0.22732993  0.38345290    -0.20600
C2354       C  0.90957244  0.25212756  0.39557164    -0.07100
C2355       C  0.89248895  0.27648737  0.40739641     0.13700
C2356       C  0.86029187  0.27519857  0.40681910    -0.20600
C2357       C  0.84457309  0.25031034  0.39482718    -0.07100
C2358       C  0.86166364  0.22610285  0.38277672     0.13700
C2359       C  0.84641796  0.19932704  0.36838316    -0.24000
H2360       H  0.90687484  0.20884408  0.37409591     0.15000
H2361       H  0.84726117  0.29372402  0.41610453     0.15000
C2362       C  0.90774049  0.30354510  0.42134888    -0.23900
H2363       H  0.86346846  0.18369927  0.35870638     0.05200
H2364       H  0.83091989  0.20779020  0.35156346     0.08500
H2365       H  0.83315761  0.18561775  0.38367930     0.08500
H2366       H  0.92097980  0.31695246  0.40581368     0.08500
H2367       H  0.92326002  0.29542874  0.43828947     0.08500
H2368       H  0.89069405  0.31936308  0.43077648     0.05200
C2369       C  0.61041198  0.27603129  0.37974165    -0.20600
C2370       C  0.59461066  0.25165915  0.39238105    -0.07100
C2371       C  0.61159332  0.22818811  0.40592987     0.13700
C2372       C  0.64376905  0.22980238  0.40641487    -0.20600
C2373       C  0.65959316  0.25416839  0.39378800    -0.07100
C2374       C  0.64262480  0.27755235  0.38007980     0.13700
C2375       C  0.65808191  0.30367446  0.36498015    -0.24000
H2376       H  0.59743708  0.29390902  0.36922775     0.15000
H2377       H  0.65669643  0.21192047  0.41697206     0.15000
C2378       C  0.59616207  0.20180948  0.42066730    -0.23900
H2379       H  0.64119020  0.31867913  0.35410906     0.05200
H2380       H  0.67404571  0.29448090  0.34903500     0.08500
H2381       H  0.67090162  0.31820977  0.38004685     0.08500
H2382       H  0.58375501  0.18726493  0.40532451     0.08500
H2383       H  0.57977869  0.21075033  0.43634792     0.08500
H2384       H  0.61299430  0.18691446  0.43174256     0.05200
C2385       C  0.85785418  0.02783141  0.40069870    -0.20600
C2386       C  0.84290895  0.00067487  0.39257323    -0.07100
C2387       C  0.85921368  0.47621600  0.40984975     0.13700
C2388       C  0.89139992  0.47797543  0.40944680    -0.20600
C2389       C  0.90796630  0.00434735  0.39363213    -0.07100
C2390       C  0.89000223  0.03010694  0.40134748     0.13700
C2391       C  0.90413523  0.05996028  0.41083482    -0.24000
H2392       H  0.84425964  0.04747543  0.40693210     0.15000
H2393       H  0.90481445  0.46058719  0.42019060     0.15000
C2394       C  0.84432287  0.45043242  0.42586009    -0.23900
H2395       H  0.88643352  0.07700880  0.41694628     0.05200
H2396       H  0.91763272  0.07028728  0.39362895     0.08500
H2397       H  0.91914889  0.05589951  0.42928219     0.08500
H2398       H  0.83114726  0.43545122  0.41142702     0.08500
H2399       H  0.82879075  0.45997180  0.44198802     0.08500
H2400       H  0.86159904  0.43576424  0.43659535     0.05200
C2401       C  0.60691109  0.47943855  0.38052391    -0.20600
C2402       C  0.59295602  0.00258927  0.39819440    -0.07100
C2403       C  0.61104829  0.02771992  0.40729189     0.13700
C2404       C  0.64315201  0.02574260  0.40568636    -0.20600
C2405       C  0.65784041  0.99927007  0.39570116    -0.07100
C2406       C  0.63899416  0.47837836  0.37846276     0.13700
C2407       C  0.65332755  0.45451514  0.35990231    -0.24000
H2408       H  0.59320161  0.46243336  0.36959910     0.15000
H2409       H  0.65694710  0.04503722  0.41261807     0.15000
C2410       C  0.59704221  0.05640680  0.41937016    -0.23900
H2411       H  0.63570036  0.44053469  0.34890255     0.05200
H2412       H  0.66775998  0.43856532  0.37237781     0.08500
H2413       H  0.66837966  0.94906400  0.35868664     0.08500
H2414       H  0.58104196  0.54100883  0.44274280     0.08500
H2415       H  0.58321428  0.06849182  0.40323848     0.08500
H2416       H  0.61485871  0.07273832  0.42685092     0.05200
C2417       C  0.76939900  0.26735463  0.26579976    -0.20600
C2418       C  0.74760559  0.24863922  0.25240334    -0.07100
C2419       C  0.72771150  0.23031115  0.26869570     0.13700
C2420       C  0.72993811  0.23151375  0.29791810    -0.20600
C2421       C  0.75110467  0.25092812  0.31126614    -0.07100
C2422       C  0.77126867  0.26892324  0.29501163     0.13700
C2423       C  0.79545478  0.28901270  0.30828468    -0.24000
H2424       H  0.78483956  0.28115390  0.25329891     0.15000
H2425       H  0.71472548  0.21752187  0.31047727     0.15000
C2426       C  0.70477296  0.20875666  0.25551021    -0.23900
H2427       H  0.81030366  0.30010025  0.29241690     0.05200
H2428       H  0.81039187  0.27499676  0.32219661     0.08500
H2429       H  0.78441688  0.30751807  0.32054250     0.08500
H2430       H  0.71676798  0.19262266  0.24133359     0.08500
H2431       H  0.68729957  0.22197642  0.24358592     0.08500
H2432       H  0.69242843  0.19496219  0.27141006     0.05200
C2433       C  0.76772684  0.35611138  0.15182043    -0.20600
C2434       C  0.74594152  0.34113038  0.16848723    -0.07100
C2435       C  0.72540997  0.35880487  0.18469239     0.13700
C2436       C  0.72732780  0.39096056  0.18380132    -0.20600
C2437       C  0.74931164  0.40590576  0.16731900    -0.07100
C2438       C  0.76955046  0.38823597  0.15083174     0.13700
C2439       C  0.79228817  0.40297437  0.13131591    -0.24000
H2440       H  0.78317920  0.34255028  0.13915044     0.15000
H2441       H  0.71183361  0.40456062  0.19639290     0.15000
C2442       C  0.70219876  0.34404994  0.20371672    -0.23900
H2443       H  0.80477318  0.38563618  0.11873642     0.05200
H2444       H  0.80965942  0.41611659  0.14338422     0.08500
H2445       H  0.78006645  0.41855650  0.11662572     0.08500
H2446       H  0.71404741  0.32845667  0.21864354     0.08500
H2447       H  0.68515586  0.33090478  0.19126375     0.08500
H2448       H  0.68936003  0.36138089  0.21600166     0.05200
C2449       C  0.72277899  0.10607225  0.15949410    -0.20600
C2450       C  0.75029309  0.09091081  0.16640783    -0.07100
C2451       C  0.77652982  0.10875197  0.17326797     0.13700
C2452       C  0.77418844  0.14089112  0.17353162    -0.20600
C2453       C  0.74654093  0.15604217  0.16699449    -0.07100
C2454       C  0.72049472  0.13819542  0.15953388     0.13700
C2455       C  0.69022105  0.15242740  0.15109645    -0.24000
H2456       H  0.70273752  0.09264712  0.15382900     0.15000
H2457       H  0.79426033  0.15431052  0.17911183     0.15000
C2458       C  0.80705144  0.09447645  0.18080583    -0.23900
H2459       H  0.67305748  0.13486779  0.14476376     0.05200
H2460       H  0.69359884  0.16801867  0.13303166     0.08500
H2461       H  0.68035942  0.16527768  0.16890493     0.08500
H2462       H  0.81611245  0.08140589  0.16277590     0.08500
H2463       H  0.80434010  0.07906480  0.19906338     0.08500
H2464       H  0.82452918  0.11202324  0.18641249     0.05200
C2465       C  0.74271390  0.47303045  0.26449980    -0.20600
C2466       C  0.75208955  0.99821278  0.25074295    -0.07100
C2467       C  0.77659779  0.01107850  0.26649665     0.13700
C2468       C  0.77489817  0.01124431  0.29576638    -0.20600
C2469       C  0.74989508  0.99816955  0.30968214    -0.07100
C2470       C  0.74217748  0.47160370  0.29374506     0.13700
C2471       C  0.73125448  0.44227965  0.30716953    -0.24000
H2472       H  0.73522766  0.45343000  0.25230749     0.15000
H2473       H  0.79340025  0.02128388  0.30794615     0.15000
C2474       C  0.80424605  0.02535568  0.25283526    -0.23900
H2475       H  0.72378081  0.42508993  0.29144297     0.05200
H2476       H  0.71137995  0.44703663  0.32084666     0.08500
H2477       H  0.75018230  0.43175914  0.31949874     0.08500
H2478       H  0.79677117  0.04398505  0.23853371     0.08500
H2479       H  0.81716119  0.00768524  0.24106963     0.08500
H2480       H  0.82030531  0.03544647  0.26840656     0.05200
C2481       C  0.52291991  0.23824485  0.29422453    -0.20600
C2482       C  0.99794128  0.24957633  0.31071196    -0.07100
C2483       C  0.97611135  0.26716762  0.29562169     0.13700
C2484       C  0.97723597  0.26749360  0.26637036    -0.20600
C2485       C  0.99929997  0.25043303  0.25181798    -0.07100
C2486       C  0.52408910  0.23753121  0.26498459     0.13700
C2487       C  0.54922817  0.21921321  0.25126259    -0.24000
H2488       H  0.54037807  0.22634494  0.30631661     0.15000
H2489       H  0.96075626  0.28129909  0.25484046     0.15000
C2490       C  0.95062149  0.28490557  0.30944849    -0.23900
H2491       H  0.56369884  0.20691612  0.26683044     0.05200
H2492       H  0.56458514  0.23467360  0.23933265     0.08500
H2493       H  0.53900418  0.20181018  0.23707700     0.08500
H2494       H  0.94982396  0.28167912  0.33234490     0.08500
H2495       H  0.92812947  0.27711594  0.30099214     0.08500
H2496       H  0.95333477  0.30974775  0.30493336     0.05200
C2497       C  0.97482294  0.36178217  0.16030227    -0.20600
C2498       C  0.50221578  0.34666084  0.16691607    -0.07100
C2499       C  0.52776113  0.36361390  0.17701533     0.13700
C2500       C  0.52630831  0.39576195  0.17742902    -0.20600
C2501       C  0.50008928  0.41173562  0.16825876    -0.07100
C2502       C  0.97292512  0.39394881  0.16050649     0.13700
C2503       C  0.94378857  0.40882395  0.14994259    -0.24000
H2504       H  0.95530384  0.34866217  0.15281569     0.15000
H2505       H  0.54590536  0.40855348  0.18522027     0.15000
C2506       C  0.55646072  0.34831316  0.18808724    -0.23900
H2507       H  0.92698838  0.39163785  0.14212106     0.05200
H2508       H  0.94910286  0.42463218  0.13244296     0.08500
H2509       H  0.93254853  0.42165126  0.16707439     0.08500
H2510       H  0.56811170  0.33562494  0.17110182     0.08500
H2511       H  0.55048022  0.33236216  0.20531468     0.08500
H2512       H  0.57321005  0.36522785  0.19647116     0.05200
C2513       C  0.52437099  0.14686395  0.17934034    -0.20600
C2514       C  0.50031575  0.16170873  0.16509125    -0.07100
C2515       C  0.97553885  0.14379674  0.17997920     0.13700
C2516       C  0.97725160  0.11166541  0.17956704    -0.20600
C2517       C  0.50324624  0.09688099  0.16745091    -0.07100
C2518       C  0.52615563  0.11476684  0.18077095     0.13700
C2519       C  0.55199070  0.10041940  0.19734656    -0.24000
H2520       H  0.54173735  0.16053311  0.18982627     0.15000
H2521       H  0.95906654  0.09839282  0.18915471     0.15000
C2522       C  0.94862300  0.15868651  0.19432703    -0.23900
H2523       H  0.56661328  0.11799644  0.20766329     0.05200
H2524       H  0.56702336  0.08687700  0.18336778     0.08500
H2525       H  0.54245525  0.08534103  0.21387322     0.08500
H2526       H  0.93463963  0.17177555  0.17896966     0.08500
H2527       H  0.95700121  0.17426558  0.21103561     0.08500
H2528       H  0.93325057  0.14146263  0.20412439     0.05200
C2529       C  0.98260350  0.02483058  0.29740202    -0.20600
C2530       C  0.00278590  0.00516605  0.31169928    -0.07100
C2531       C  0.52607024  0.49074470  0.29712271     0.13700
C2532       C  0.52545289  0.49155823  0.26784533    -0.20600
C2533       C  0.00141333  0.00623234  0.25278658    -0.07100
C2534       C  0.98145184  0.02544789  0.26811665     0.13700
C2535       C  0.95955268  0.04728663  0.25381713    -0.24000
H2536       H  0.96723426  0.03936102  0.30924491     0.15000
H2537       H  0.54410905  0.48111227  0.25636244     0.15000
C2538       C  0.55307457  0.47625721  0.31196089    -0.23900
H2539       H  0.94706977  0.06179934  0.26905315     0.05200
H2540       H  0.93958326  0.53299271  0.24280431     0.08500
H2541       H  0.97245759  0.06273595  0.23963334     0.08500
H2542       H  0.54527870  0.45644176  0.32464174     0.08500
H2543       H  0.56466235  0.98973877  0.32677493     0.08500
H2544       H  0.57058539  0.46779445  0.29705532     0.05200
O2545       O  0.52731029  0.00487370  0.20992643    -0.72000
O2546       O  0.52906983  0.50311102  0.12994492    -0.72300
O2547       O  0.52951617  0.54697868  0.16934642    -0.72100
O2548       O  0.52661327  0.96053903  0.17097698    -0.72100
O2549       O  0.97541395  0.96089468  0.16971204    -0.72100
O2550       O  0.97683077  0.54806908  0.16858183    -0.72100
O2551       O  0.97601242  0.00327377  0.12912495    -0.72000
O2552       O  0.97462463  0.50559654  0.20895887    -0.72200
V2553       V  0.52702719  0.50345023  0.16959220     1.35200
V2554       V  0.97658926  0.50458034  0.16936757     1.35200
C2555       C  0.99921725  0.50475486  0.22309522     0.77200
C2556       C  0.00195676  0.50332634  0.11692443     0.77300
C2557       C  0.50511115  0.56271053  0.16874045     0.77100
C2558       C  0.50144941  0.94600311  0.17124146     0.77100
O2559       O  0.52917161  0.75324834  0.20766194    -0.72000
O2560       O  0.52861400  0.75455177  0.12841799    -0.72300
O2561       O  0.52929817  0.79754726  0.16877107    -0.72100
O2562       O  0.52846926  0.71042743  0.16755446    -0.72100
O2563       O  0.97606344  0.71065991  0.16687411    -0.72100
O2564       O  0.97769875  0.79761747  0.16613055    -0.72100
O2565       O  0.97631446  0.75369810  0.12673074    -0.72000
O2566       O  0.97738056  0.75448178  0.20601528    -0.72200
V2567       V  0.52793349  0.75398772  0.16806015     1.35200
V2568       V  0.97782415  0.75411416  0.16639578     1.35200
C2569       C  0.00246282  0.75327776  0.21943828     0.77200
C2570       C  0.00115389  0.75341094  0.11318757     0.77300
C2571       C  0.50455522  0.81274964  0.16867096     0.77100
C2572       C  0.50340452  0.69578443  0.16851048     0.77100
O2573       O  0.72722449  0.49894939  0.20694993    -0.72000
O2574       O  0.72293858  0.99821303  0.12755890    -0.72300
O2575       O  0.72389605  0.95493050  0.16744636    -0.72100
O2576       O  0.72691630  0.54216156  0.16691913    -0.72100
O2577       O  0.77666130  0.54138385  0.16557538    -0.76900
O2578       O  0.77372021  0.95436480  0.16563769    -0.72100
O2579       O  0.77473061  0.49698332  0.12684775    -0.72000
O2580       O  0.77576370  0.99767792  0.20556509    -0.72200
V2581       V  0.72544181  0.99847497  0.16716497     1.35200
V2582       V  0.77333991  0.99788644  0.16596930     1.35200
C2583       C  0.75137218  0.99828371  0.21974880     0.77200
C2584       C  0.74744078  0.99799274  0.11353674     0.77300
C2585       C  0.74863708  0.93978723  0.16619763     0.77100
C2586       C  0.75205287  0.55674704  0.16606451     0.77100
O2587       O  0.72200673  0.74678131  0.20613017    -0.72000
O2588       O  0.72167514  0.74966129  0.12695643    -0.72300
O2589       O  0.72260720  0.70489644  0.16529400    -0.72100
O2590       O  0.72113716  0.79181828  0.16782238    -0.72100
O2591       O  0.77094434  0.79264620  0.16568852    -0.72100
O2592       O  0.77231692  0.70550809  0.16742286    -0.72100
O2593       O  0.77161132  0.74820426  0.12709460    -0.72000
O2594       O  0.77182317  0.75016184  0.20623242    -0.72200
V2595       V  0.72281353  0.74832986  0.16655777     1.35200
V2596       V  0.77073562  0.74910433  0.16663835     1.35200
C2597       C  0.74696681  0.74831434  0.21964072     0.77200
C2598       C  0.74661200  0.74888401  0.11359099     0.77300
C2599       C  0.74761950  0.69021434  0.16601876     0.77100
C2600       C  0.74578132  0.80709987  0.16687605     0.77100
O2601       O  0.99888615  0.52792856  0.35744079    -0.72000
O2602       O  0.49926916  0.52496181  0.43612843    -0.72300
O2603       O  0.54296728  0.52691014  0.39685747    -0.72100
O2604       O  0.95542463  0.52712793  0.39678206    -0.72100
O2605       O  0.95679530  0.97922624  0.39388575    -0.72100
O2606       O  0.54410734  0.97792304  0.39780889    -0.72100
O2607       O  0.99925541  0.97761415  0.43465487    -0.72000
O2608       O  0.50241215  0.97908974  0.35669560    -0.72200
V2609       V  0.99893054  0.52628395  0.39708892     1.35200
V2610       V  0.00036254  0.97955764  0.39512074     1.35200
C2611       C  0.99957741  0.50318471  0.34371305     0.77200
C2612       C  0.99863472  0.50131821  0.44979880     0.77300
C2613       C  0.55815800  0.50224305  0.39647774     0.77100
C2614       C  0.94058525  0.50224389  0.39609893     0.77100
O2615       O  0.99890414  0.77639704  0.35371308    -0.72000
O2616       O  0.50168782  0.77401323  0.43483779    -0.72300
O2617       O  0.54413135  0.77466508  0.39459246    -0.72100
O2618       O  0.95664126  0.77560796  0.39420489    -0.72100
O2619       O  0.95663082  0.72587967  0.39209533    -0.72100
O2620       O  0.54312480  0.72493726  0.39462602    -0.72100
O2621       O  0.99993288  0.72524104  0.43227652    -0.72000
O2622       O  0.50039413  0.72724836  0.35432062    -0.72200
V2623       V  0.00016480  0.77476400  0.39328456     1.35200
V2624       V  0.00026297  0.72688561  0.39269713     1.35200
C2625       C  0.99954436  0.75168523  0.33996892     0.77200
C2626       C  0.00090000  0.74995881  0.44599293     0.77300
C2627       C  0.55856810  0.74947663  0.39452505     0.77100
C2628       C  0.94173265  0.75075485  0.39344854     0.77100
O2629       O  0.74995153  0.52356808  0.35366903    -0.72000
O2630       O  0.74915685  0.52514103  0.43309521    -0.72300
O2631       O  0.79305407  0.52402062  0.39392064    -0.72100
O2632       O  0.70593552  0.52487368  0.39297499    -0.72100
O2633       O  0.70701024  0.97461702  0.39486091    -0.72100
O2634       O  0.79396659  0.97528665  0.39299305    -0.72100
O2635       O  0.75152342  0.97570471  0.43346504    -0.72000
O2636       O  0.74916787  0.97409847  0.35429320    -0.72200
V2637       V  0.74950924  0.52346444  0.39341308     1.35200
V2638       V  0.75045110  0.97590063  0.39387437     1.35200
C2639       C  0.75056685  0.49833615  0.34059530     0.77200
C2640       C  0.74808132  0.50038894  0.44686855     0.77300
C2641       C  0.80773194  0.49902911  0.39540180     0.77100
C2642       C  0.69085343  0.50009235  0.39251617     0.77100
O2643       O  0.75085110  0.77542039  0.35393115    -0.72000
O2644       O  0.75083910  0.77503367  0.43304362    -0.72300
O2645       O  0.79441791  0.77410108  0.39372124    -0.72100
O2646       O  0.70726673  0.77614044  0.39337456    -0.72100
O2647       O  0.70621174  0.72642021  0.39428936    -0.72100
O2648       O  0.79323577  0.72435581  0.39223644    -0.72100
O2649       O  0.75099310  0.72515163  0.43291492    -0.72000
O2650       O  0.74831407  0.72571717  0.35364196    -0.72200
V2651       V  0.75082403  0.77421018  0.39349188     1.35200
V2652       V  0.74971913  0.72636192  0.39327802     1.35200
C2653       C  0.74952438  0.75071054  0.34023032     0.77200
C2654       C  0.75103995  0.75005134  0.44642149     0.77300
C2655       C  0.80872237  0.74885927  0.39277663     0.77100
C2656       C  0.69180624  0.75161846  0.39415201     0.77100
O2657       O  0.54083042  0.52243819  0.53266750    -0.72000
O2658       O  0.95372428  0.52424507  0.53372623    -0.72300
O2659       O  0.49739822  0.52096275  0.57238577    -0.72100
O2660       O  0.99713969  0.52527840  0.49409353    -0.72100
O2661       O  0.50013022  0.97483208  0.49363912    -0.72100
O2662       O  0.99754711  0.97392824  0.57123429    -0.72100
O2663       O  0.95519354  0.97481792  0.53035011    -0.72000
O2664       O  0.54294274  0.97497728  0.53431892    -0.72200
V2665       V  0.49714161  0.52090635  0.53286763     1.35200
V2666       V  0.99872576  0.97594633  0.53164681     1.35200
C2667       C  0.55753072  0.00003266  0.53351843     0.77200
C2668       C  0.94014078  0.99955937  0.53150684     0.77300
C2669       C  0.99798877  0.99853009  0.58516145     0.77100
C2670       C  0.99907346  0.00136848  0.47910360     0.77100
O2671       O  0.54596635  0.77066362  0.53149174    -0.72000
O2672       O  0.95844969  0.77411465  0.52951180    -0.72300
O2673       O  0.50245915  0.77083224  0.57077887    -0.72100
O2674       O  0.00197613  0.77432589  0.49011785    -0.72100
O2675       O  0.50092889  0.72236757  0.49100072    -0.72100
O2676       O  0.00211819  0.72367999  0.56897700    -0.72100
O2677       O  0.95830246  0.72435369  0.52932396    -0.72000
O2678       O  0.54518456  0.72086733  0.53021760    -0.72200
V2679       V  0.50234435  0.77046732  0.53131714     1.35200
V2680       V  0.00183654  0.72503954  0.52934739     1.35200
C2681       C  0.56045191  0.74552216  0.53062800     0.77200
C2682       C  0.94344162  0.74925137  0.52913573     0.77300
C2683       C  0.00220970  0.74853865  0.58251941     0.77100
C2684       C  0.00148418  0.74953872  0.47649934     0.77100
O2685       O  0.79060184  0.52563795  0.53189177    -0.72000
O2686       O  0.70345417  0.52477341  0.52927019    -0.72300
O2687       O  0.74587821  0.52500491  0.57016393    -0.72100
O2688       O  0.74818426  0.52544075  0.49090426    -0.72100
O2689       O  0.74881888  0.97638824  0.49062719    -0.72100
O2690       O  0.74849856  0.97657744  0.56972318    -0.72100
O2691       O  0.70499626  0.97676991  0.53006214    -0.72000
O2692       O  0.79230793  0.97635842  0.53043450    -0.72200
V2693       V  0.74703573  0.52425315  0.53054523     1.35200
V2694       V  0.74865425  0.97749175  0.53018374     1.35200
C2695       C  0.80723593  0.00120499  0.53191222     0.77200
C2696       C  0.69024296  0.00174447  0.52875636     0.77300
C2697       C  0.74723527  0.00147396  0.58312649     0.77100
C2698       C  0.75022025  0.00122378  0.47707339     0.77100
O2699       O  0.70757653  0.77408908  0.53032062    -0.72000
O2700       O  0.79470750  0.77621521  0.52975120    -0.72300
O2701       O  0.75067131  0.77502926  0.49033888    -0.72100
O2702       O  0.75158189  0.77533620  0.56954917    -0.72100
O2703       O  0.75264799  0.72546154  0.56964439    -0.72100
O2704       O  0.75198398  0.72516161  0.49046166    -0.72100
O2705       O  0.79588999  0.72645878  0.52992520    -0.72000
O2706       O  0.70866529  0.72427572  0.53011400    -0.72200
V2707       V  0.75115032  0.77419548  0.52995316     1.35200
V2708       V  0.75227943  0.72630310  0.53004711     1.35200
C2709       C  0.69325941  0.74887121  0.53058855     0.77200
C2710       C  0.81022814  0.75171285  0.52988243     0.77300
C2711       C  0.75125182  0.75006364  0.47696033     0.77100
C2712       C  0.75220048  0.75041865  0.58303386     0.77100
O2713       O  0.97787482  0.50331867  0.07250505    -0.72000
O2714       O  0.97590110  0.00197089  0.99243063    -0.72300
O2715       O  0.97458305  0.95877498  0.03242626    -0.72100
O2716       O  0.97863051  0.54566583  0.03170887    -0.72100
O2717       O  0.53052043  0.54566632  0.03242638    -0.72100
O2718       O  0.52518614  0.95852467  0.03295319    -0.72100
O2719       O  0.52905386  0.50228780  0.99252554    -0.72000
O2720       O  0.52672196  0.00186415  0.07286053    -0.72200
V2721       V  0.97695820  0.00233435  0.03204535     1.35200
V2722       V  0.52510361  0.00206253  0.03318802     1.35200
C2723       C  0.00093850  0.00197103  0.08520402     0.77200
C2724       C  0.00084176  0.00129636  0.97906649     0.77300
C2725       C  0.99905755  0.94313883  0.03210692     0.77100
C2726       C  0.00367247  0.56042554  0.03247078     0.77100
O2727       O  0.52823061  0.70946527  0.03178107    -0.72000
O2728       O  0.52766563  0.79662877  0.03076838    -0.72300
O2729       O  0.52820963  0.75364834  0.07094482    -0.72100
O2730       O  0.52791309  0.75263789  0.99173277    -0.72100
O2731       O  0.97673553  0.75173833  0.98957452    -0.72100
O2732       O  0.97609597  0.75207092  0.06894099    -0.72100
O2733       O  0.97628372  0.79542936  0.02917621    -0.72000
O2734       O  0.97637186  0.70839269  0.02928667    -0.72200
V2735       V  0.52703462  0.75307843  0.03132642     1.35200
V2736       V  0.97733513  0.75190297  0.02925569     1.35200
C2737       C  0.00123376  0.69343784  0.02993321     0.77200
C2738       C  0.00118769  0.81034094  0.02872162     0.77300
C2739       C  0.00103095  0.75282092  0.08260051     0.77100
C2740       C  0.00186243  0.75106996  0.97645475     0.77100
O2741       O  0.77134068  0.99790605  0.06934437    -0.72000
O2742       O  0.77176786  0.49694764  0.99054491    -0.72300
O2743       O  0.77313760  0.54029854  0.03023875    -0.72100
O2744       O  0.77044400  0.95367623  0.03045451    -0.72100
O2745       O  0.72059244  0.95406976  0.02948610    -0.72100
O2746       O  0.72336005  0.54121532  0.03096716    -0.72100
O2747       O  0.72044178  0.99810627  0.99036070    -0.72000
O2748       O  0.72327765  0.49724339  0.07020908    -0.72200
V2749       V  0.76980181  0.99724621  0.02984103     1.35200
V2750       V  0.72184077  0.99760347  0.03006209     1.35200
C2751       C  0.74661487  0.99764620  0.08299647     0.77200
C2752       C  0.74534335  0.99717502  0.97691152     0.77300
C2753       C  0.74854370  0.55571655  0.03065403     0.77100
C2754       C  0.74539203  0.93897563  0.02967933     0.77100
O2755       O  0.77165166  0.74760848  0.06987241    -0.72000
O2756       O  0.77205325  0.74673080  0.99074634    -0.72300
O2757       O  0.77248746  0.79070704  0.03000032    -0.72100
O2758       O  0.77111803  0.70365759  0.03077133    -0.72100
O2759       O  0.72131906  0.70438589  0.03088026    -0.72100
O2760       O  0.72264677  0.79150068  0.02882522    -0.72100
O2761       O  0.72210244  0.74687893  0.99019997    -0.72000
O2762       O  0.72171435  0.74899790  0.06942425    -0.72200
V2763       V  0.77085204  0.74719105  0.03031207     1.35200
V2764       V  0.72290248  0.74792767  0.02983092     1.35200
C2765       C  0.74663309  0.74854437  0.08307780     0.77200
C2766       C  0.74717550  0.74654865  0.97703032     0.77300
C2767       C  0.74782131  0.80600531  0.02948676     0.77100
C2768       C  0.74599055  0.68907243  0.03120647     0.77100
O2769       O  0.97528464  0.99942994  0.85587636    -0.72000
O2770       O  0.97817786  0.50030296  0.93648705    -0.72300
O2771       O  0.97597748  0.54289986  0.89600906    -0.72100
O2772       O  0.97527399  0.95710150  0.89631124    -0.72100
O2773       O  0.52224265  0.95822296  0.89530556    -0.72100
O2774       O  0.52556939  0.54530002  0.89564751    -0.72100
O2775       O  0.52398265  0.00094305  0.93573679    -0.72000
O2776       O  0.52433372  0.50257816  0.85537896    -0.72200
V2777       V  0.97822095  0.49943932  0.89693368     1.35200
V2778       V  0.52499090  0.50182507  0.89502653     1.35200
C2779       C  0.00074624  0.49999100  0.84357384     0.77200
C2780       C  0.00340717  0.50055684  0.94965318     0.77300
C2781       C  0.00040162  0.55855618  0.89591184     0.77100
C2782       C  0.99999546  0.94194245  0.89555952     0.77100
O2783       O  0.97857520  0.75119721  0.85288738    -0.72000
O2784       O  0.97753185  0.74981343  0.93205298    -0.72300
O2785       O  0.97846652  0.79396988  0.89311620    -0.72100
O2786       O  0.97805294  0.70682373  0.89186414    -0.72100
O2787       O  0.52862115  0.70846750  0.89595343    -0.72100
O2788       O  0.52754682  0.79540722  0.89356474    -0.72100
O2789       O  0.52795980  0.75315908  0.93432798    -0.72000
O2790       O  0.52821373  0.75044580  0.85509855    -0.72200
V2791       V  0.97910057  0.75042690  0.89247906     1.35200
V2792       V  0.52711199  0.75190279  0.89470960     1.35200
C2793       C  0.00363726  0.74979726  0.83977145     0.77200
C2794       C  0.00229776  0.75058575  0.94589880     0.77300
C2795       C  0.00351364  0.80872932  0.89308503     0.77100
C2796       C  0.00297065  0.69183676  0.89285551     0.77100
O2797       O  0.72266839  0.99614132  0.85316806    -0.72000
O2798       O  0.72141075  0.49797086  0.93319870    -0.72300
O2799       O  0.72141694  0.54039268  0.89241912    -0.72100
O2800       O  0.72123686  0.95315978  0.89320480    -0.72100
O2801       O  0.77111023  0.95254791  0.89381503    -0.72100
O2802       O  0.77124195  0.54058220  0.89433327    -0.72100
O2803       O  0.77075095  0.99592078  0.93345155    -0.72000
O2804       O  0.77142927  0.49781490  0.85432006    -0.72200
V2805       V  0.72270734  0.99665853  0.89278064     1.35200
V2806       V  0.77064940  0.99615856  0.89392199     1.35200
C2807       C  0.74792753  0.99672679  0.84026077     0.77200
C2808       C  0.74639323  0.49736013  0.94675623     0.77300
C2809       C  0.74627013  0.55537999  0.89303429     0.77100
C2810       C  0.74596855  0.93797729  0.89342900     0.77100
O2811       O  0.72445266  0.74653859  0.85323636    -0.72000
O2812       O  0.72280238  0.74656411  0.93252986    -0.72300
O2813       O  0.72334356  0.79014958  0.89282055    -0.72100
O2814       O  0.72396941  0.70296262  0.89289341    -0.72100
O2815       O  0.77383550  0.70338733  0.89319715    -0.72100
O2816       O  0.77316254  0.79039386  0.89506595    -0.72100
O2817       O  0.77274678  0.74587883  0.93355446    -0.72000
O2818       O  0.77430119  0.74820008  0.85444703    -0.72200
V2819       V  0.72458763  0.74654774  0.89289336     1.35200
V2820       V  0.77252976  0.74691369  0.89400170     1.35200
C2821       C  0.74968652  0.74791208  0.84033401     0.77200
C2822       C  0.74754079  0.74622928  0.94648544     0.77300
C2823       C  0.74818567  0.80514934  0.89434671     0.77100
C2824       C  0.74905020  0.68828378  0.89317425     0.77100
O2825       O  0.99561921  0.97145168  0.70805224    -0.72000
O2826       O  0.49761766  0.97425452  0.63068024    -0.72300
O2827       O  0.53944997  0.97458143  0.67185081    -0.72100
O2828       O  0.95227692  0.97318290  0.66794782    -0.72100
O2829       O  0.95228809  0.52360003  0.66956452    -0.72100
O2830       O  0.53888874  0.52014457  0.66889174    -0.72100
O2831       O  0.99605658  0.52288186  0.63044431    -0.72000
O2832       O  0.49550448  0.52122256  0.70834076    -0.72200
V2833       V  0.99587811  0.97307055  0.66843798     1.35200
V2834       V  0.99577528  0.52150732  0.67001259     1.35200
C2835       C  0.99642575  0.99609775  0.72190218     0.77200
C2836       C  0.99717193  0.99789744  0.61569362     0.77300
C2837       C  0.55465819  0.99924260  0.67124012     0.77100
C2838       C  0.93798982  0.99845977  0.66783120     0.77100
O2839       O  0.50127503  0.77379746  0.70648588    -0.72000
O2840       O  0.00275052  0.77359630  0.62625431    -0.72300
O2841       O  0.95849387  0.77335323  0.66500256    -0.72100
O2842       O  0.54564985  0.77330582  0.66781956    -0.72100
O2843       O  0.54653831  0.72344980  0.66781329    -0.72100
O2844       O  0.95925479  0.72366105  0.66696818    -0.72100
O2845       O  0.50227587  0.72144481  0.62857652    -0.72000
O2846       O  0.00375664  0.72475603  0.70598327    -0.72200
V2847       V  0.00213555  0.77303104  0.66577779     1.35200
V2848       V  0.00282073  0.72515831  0.66630575     1.35200
C2849       C  0.00235697  0.74985287  0.71916286     0.77200
C2850       C  0.00231576  0.74855480  0.61303434     0.77300
C2851       C  0.94391390  0.74827019  0.66617959     0.77100
C2852       C  0.56092477  0.74863615  0.66814309     0.77100
O2853       O  0.74482205  0.97428568  0.70579683    -0.72000
O2854       O  0.74649271  0.97598629  0.62675640    -0.72300
O2855       O  0.78920565  0.97381871  0.66717704    -0.72100
O2856       O  0.70219250  0.97660506  0.66556797    -0.72100
O2857       O  0.70236301  0.52410005  0.66760774    -0.72100
O2858       O  0.78951233  0.52352810  0.66710672    -0.72100
O2859       O  0.74548827  0.52445964  0.62771921    -0.72000
O2860       O  0.74649438  0.52330445  0.70696732    -0.72200
V2861       V  0.74571408  0.97614501  0.66630382     1.35200
V2862       V  0.74593610  0.52291286  0.66732659     1.35200
C2863       C  0.74650679  0.99878973  0.71974258     0.77200
C2864       C  0.74652679  0.00116274  0.61366399     0.77300
C2865       C  0.80491451  0.99818792  0.66690441     0.77100
C2866       C  0.68797022  0.00184190  0.66724445     0.77100
O2867       O  0.75255678  0.77419626  0.70647590    -0.72000
O2868       O  0.75069067  0.77513835  0.62715556    -0.72300
O2869       O  0.70801712  0.77416823  0.66750881    -0.72100
O2870       O  0.79517179  0.77524902  0.66608754    -0.72100
O2871       O  0.79583967  0.72554785  0.66797328    -0.72100
O2872       O  0.70865690  0.72444327  0.66454599    -0.72100
O2873       O  0.75376761  0.72534762  0.62685321    -0.72000
O2874       O  0.75037540  0.72441765  0.70589161    -0.72200
V2875       V  0.75162520  0.77375159  0.66680514     1.35200
V2876       V  0.75219530  0.72589260  0.66636186     1.35200
C2877       C  0.75092829  0.74910150  0.71967541     0.77200
C2878       C  0.75226393  0.75034696  0.61356388     0.77300
C2879       C  0.69348810  0.74912966  0.66569756     0.77100
C2880       C  0.81046866  0.75061969  0.66683677     0.77100
C2881       C  0.86021621  0.72546290  0.67789564    -0.20600
C2882       C  0.84462016  0.75081769  0.66652812    -0.07100
C2883       C  0.86194992  0.77509882  0.65473734     0.13700
C2884       C  0.89416511  0.77336657  0.65494080    -0.20600
C2885       C  0.90976256  0.74804798  0.66639731    -0.07100
C2886       C  0.89242694  0.72371697  0.67807735     0.13700
C2887       C  0.90742773  0.69614735  0.69148490    -0.24000
H2888       H  0.84707428  0.70688522  0.68700118     0.15000
H2889       H  0.90730382  0.79192547  0.64579742     0.15000
C2890       C  0.84693375  0.80257484  0.64118072    -0.23900
H2891       H  0.89026307  0.68037141  0.70082298     0.05200
H2892       H  0.92322196  0.70367260  0.70841981     0.08500
H2893       H  0.92031031  0.68288981  0.67563144     0.08500
H2894       H  0.83419004  0.81602344  0.65699325     0.08500
H2895       H  0.83097924  0.79490984  0.62443803     0.08500
H2896       H  0.86406536  0.81818998  0.63156983     0.05200
C2897       C  0.61012851  0.72998537  0.64929664    -0.20600
C2898       C  0.59480016  0.74906005  0.66824971    -0.07100
C2899       C  0.61212036  0.76816832  0.68629694     0.13700
C2900       C  0.64424931  0.76817140  0.68435991    -0.20600
C2901       C  0.65957970  0.74883622  0.66566391    -0.07100
C2902       C  0.64231536  0.72966576  0.64769544     0.13700
C2903       C  0.65754490  0.70980358  0.62605375    -0.24000
H2904       H  0.59677428  0.71559370  0.63533699     0.15000
H2905       H  0.65752061  0.78267202  0.69830459     0.15000
C2906       C  0.59790162  0.78772104  0.70875278    -0.23900
H2907       H  0.64040788  0.69784787  0.61268537     0.05200
H2908       H  0.67187717  0.69198665  0.63634365     0.08500
H2909       H  0.67213635  0.72419155  0.61230569     0.08500
H2910       H  0.57281812  0.78445092  0.71088106     0.08500
H2911       H  0.60250754  0.81230462  0.70433402     0.08500
H2912       H  0.60833730  0.78171718  0.72924699     0.05200
C2913       C  0.88814946  0.97437615  0.67936192    -0.20600
C2914       C  0.90395869  0.99906080  0.66725159    -0.07100
C2915       C  0.88598987  0.52173672  0.65346276     0.13700
C2916       C  0.85378364  0.52069958  0.65378678    -0.20600
C2917       C  0.83895252  0.99737588  0.66708575    -0.07100
C2918       C  0.85594470  0.97320918  0.67957592     0.13700
C2919       C  0.84056105  0.94656093  0.69396736    -0.24000
H2920       H  0.90112652  0.95598365  0.68911129     0.15000
H2921       H  0.84078319  0.53723182  0.64158852     0.15000
C2922       C  0.90161536  0.54556226  0.63563495    -0.23900
H2923       H  0.85753049  0.93090830  0.70393966     0.05200
H2924       H  0.82726914  0.93284366  0.67860086     0.08500
H2925       H  0.82505820  0.95515410  0.71054866     0.08500
H2926       H  0.91690410  0.53417014  0.62032614     0.08500
H2927       H  0.91522195  0.56139509  0.64893684     0.08500
H2928       H  0.88476012  0.55970450  0.62382654     0.05200
C2929       C  0.60276686  0.52380114  0.66832318    -0.20600
C2930       C  0.58877233  0.99908180  0.67060945    -0.07100
C2931       C  0.60596782  0.97349582  0.66123539     0.13700
C2932       C  0.63808009  0.97552281  0.66019394    -0.20600
C2933       C  0.65382048  0.00225650  0.66824928    -0.07100
C2934       C  0.63486745  0.52625788  0.66745307     0.13700
C2935       C  0.64875248  0.55798701  0.66734371    -0.24000
H2936       H  0.58924863  0.54466363  0.66902009     0.15000
H2937       H  0.65101786  0.95590502  0.65285510     0.15000
C2938       C  0.59097334  0.94408022  0.65167449    -0.23900
H2939       H  0.63092629  0.57623165  0.66764325     0.05200
H2940       H  0.66252604  0.56134040  0.64814849     0.08500
H2941       H  0.66339358  0.56119194  0.68615292     0.08500
H2942       H  0.57451937  0.94890832  0.63443793     0.08500
H2943       H  0.57884179  0.93306802  0.66936411     0.08500
H2944       H  0.60803978  0.92727695  0.64380136     0.05200
C2945       C  0.72941881  0.73041477  0.79461930    -0.20600
C2946       C  0.75026074  0.74885163  0.80947232    -0.07100
C2947       C  0.77067179  0.76808713  0.79461059     0.13700
C2948       C  0.77003287  0.76793324  0.76531136    -0.20600
C2949       C  0.74994829  0.74869092  0.75049583    -0.07100
C2950       C  0.72914837  0.72988437  0.76532343     0.13700
C2951       C  0.70596081  0.70998161  0.75042858    -0.24000
H2952       H  0.71353196  0.71599095  0.80603389     0.15000
H2953       H  0.78566367  0.78259671  0.75385602     0.15000
C2954       C  0.79249658  0.78952702  0.80941968    -0.23900
H2955       H  0.69040768  0.69819035  0.76529072     0.05200
H2956       H  0.71788277  0.69202470  0.73818307     0.08500
H2957       H  0.69160949  0.72428947  0.73625725     0.08500
H2958       H  0.80960001  0.77618202  0.82166515     0.08500
H2959       H  0.77947017  0.80489425  0.82354842     0.08500
H2960       H  0.80537913  0.80413709  0.79450495     0.05200
C2961       C  0.76836072  0.88863234  0.90923448    -0.20600
C2962       C  0.74569651  0.90400321  0.89365227    -0.07100
C2963       C  0.72371258  0.88668026  0.87853319     0.13700
C2964       C  0.72507555  0.85450911  0.87940519    -0.20600
C2965       C  0.74790160  0.83912923  0.89479375    -0.07100
C2966       C  0.76965965  0.85646431  0.91019481     0.13700
C2967       C  0.79362998  0.84139131  0.92847868    -0.24000
H2968       H  0.78497066  0.90192654  0.92105054     0.15000
H2969       H  0.70846843  0.84123622  0.86756864     0.15000
C2970       C  0.69946500  0.90179876  0.86059621    -0.23900
H2971       H  0.80723067  0.85853506  0.94042384     0.05200
H2972       H  0.80996022  0.82812975  0.91552173     0.08500
H2973       H  0.78234329  0.82590738  0.94373701     0.08500
H2974       H  0.71051013  0.91718700  0.84511674     0.08500
H2975       H  0.68349054  0.91520067  0.87380053     0.08500
H2976       H  0.68553157  0.88467979  0.84894244     0.05200
C2977       C  0.77003683  0.60470446  0.90702415    -0.20600
C2978       C  0.74639586  0.58938377  0.89266895    -0.07100
C2979       C  0.72391396  0.60680230  0.87818313     0.13700
C2980       C  0.72552583  0.63896709  0.87879575    -0.20600
C2981       C  0.74912612  0.65428022  0.89320339    -0.07100
C2982       C  0.77166362  0.63686204  0.90761461     0.13700
C2983       C  0.79684511  0.65182801  0.92452353    -0.24000
H2984       H  0.78715852  0.59139329  0.91824568     0.15000
H2985       H  0.70838016  0.65230143  0.86762802     0.15000
C2986       C  0.69875441  0.59183516  0.86125031    -0.23900
H2987       H  0.81114760  0.63463471  0.93577086     0.05200
H2988       H  0.78665898  0.66736794  0.94032422     0.08500
H2989       H  0.81231689  0.66501314  0.91063167     0.08500
H2990       H  0.68317797  0.57876337  0.87513248     0.08500
H2991       H  0.70896366  0.57619491  0.84553989     0.08500
H2992       H  0.68454138  0.60902337  0.84991003     0.05200
C2993       C  0.72596319  0.98058389  0.79485161    -0.20600
C2994       C  0.74840133  0.99738467  0.80940424    -0.07100
C2995       C  0.76543814  0.51818220  0.79461922     0.13700
C2996       C  0.76404841  0.51797957  0.76535752    -0.20600
C2997       C  0.74646738  0.99799775  0.75050551    -0.07100
C2998       C  0.72485646  0.98045844  0.76559266     0.13700
C2999       C  0.69994150  0.96243412  0.75101595    -0.24000
H3000       H  0.70933392  0.96723787  0.80646827     0.15000
H3001       H  0.77865643  0.53338545  0.75359720     0.15000
C3002       C  0.78646266  0.54072834  0.80901911    -0.23900
H3003       H  0.68407094  0.95144500  0.76610399     0.05200
H3004       H  0.71025208  0.94395290  0.73821771     0.08500
H3005       H  0.68714365  0.47039823  0.73798749     0.08500
H3006       H  0.81009965  0.01964789  0.82045794     0.08500
H3007       H  0.77297262  0.55545861  0.82334967     0.08500
H3008       H  0.79828307  0.55592506  0.79385996     0.05200
C3009       C  0.48559966  0.77157113  0.79611320    -0.20600
C3010       C  0.00371727  0.74938805  0.80899908    -0.07100
C3011       C  0.02024992  0.72717872  0.79376297     0.13700
C3012       C  0.01913534  0.72780069  0.76448641    -0.20600
C3013       C  0.00221254  0.75029299  0.75006356    -0.07100
C3014       C  0.48497561  0.77235520  0.76680896     0.13700
C3015       C  0.46532129  0.79615499  0.75242097    -0.24000
H3016       H  0.47252159  0.78830565  0.80783474     0.15000
H3017       H  0.03183864  0.71078372  0.75277174     0.15000
C3018       C  0.03814726  0.70214673  0.80826804    -0.23900
H3019       H  0.45221698  0.81019002  0.76759575     0.05200
H3020       H  0.44852370  0.78475256  0.73832216     0.08500
H3021       H  0.47998511  0.81205873  0.74025000     0.08500
H3022       H  0.02263598  0.68889778  0.82211843     0.08500
H3023       H  0.05707559  0.71225928  0.82083145     0.08500
H3024       H  0.04852012  0.68590873  0.79316064     0.05200
C3025       C  0.52481197  0.89429593  0.90364790    -0.20600
C3026       C  0.00000903  0.90783633  0.89508203    -0.07100
C3027       C  0.97397056  0.89026403  0.88714960     0.13700
C3028       C  0.97613390  0.85815665  0.88667158    -0.20600
C3029       C  0.00349936  0.84283509  0.89374030    -0.07100
C3030       C  0.52741887  0.86222008  0.90326348     0.13700
C3031       C  0.55724995  0.84805587  0.91301437    -0.24000
H3032       H  0.54426612  0.90782304  0.91065707     0.15000
H3033       H  0.95617996  0.84489097  0.88046734     0.15000
C3034       C  0.94392141  0.90482407  0.87851736    -0.23900
H3035       H  0.57385606  0.86562681  0.92045603     0.05200
H3036       H  0.56828926  0.83560881  0.89554590     0.08500
H3037       H  0.55289818  0.83207491  0.93061197     0.08500
H3038       H  0.94766747  0.92060056  0.86063827     0.08500
H3039       H  0.93392918  0.91755369  0.89633708     0.08500
H3040       H  0.92670418  0.88745949  0.87186671     0.05200
C3041       C  0.52735935  0.60924002  0.88752128    -0.20600
C3042       C  0.99991692  0.59267101  0.89480384    -0.07100
C3043       C  0.97317121  0.61043314  0.89971984     0.13700
C3044       C  0.97509276  0.64256936  0.89873249    -0.20600
C3045       C  0.00286214  0.65771389  0.89300352    -0.07100
C3046       C  0.52965591  0.64133250  0.88752297     0.13700
C3047       C  0.55938931  0.65559267  0.87798797    -0.24000
H3048       H  0.54666704  0.59579910  0.88022848     0.15000
H3049       H  0.95464607  0.65599798  0.90281147     0.15000
C3050       C  0.94253666  0.59611425  0.90645286    -0.23900
H3051       H  0.57618836  0.63806267  0.87098249     0.05200
H3052       H  0.06887104  0.66766609  0.89843231     0.08500
H3053       H  0.55506458  0.67127476  0.86021978     0.08500
H3054       H  0.94462620  0.58173028  0.92551052     0.08500
H3055       H  0.43486171  0.58422895  0.90244611     0.08500
H3056       H  0.92459650  0.61368248  0.91044176     0.05200
C3057       C  0.47724172  0.98109168  0.79907930    -0.20600
C3058       C  0.99967725  0.49982228  0.81291060    -0.07100
C3059       C  0.01118772  0.52433174  0.79674658     0.13700
C3060       C  0.00945740  0.52255886  0.76757724    -0.20600
C3061       C  0.99743634  0.99600099  0.75285907    -0.07100
C3062       C  0.47642079  0.97945118  0.76982098     0.13700
C3063       C  0.45700845  0.95500049  0.75616052    -0.24000
H3064       H  0.46485125  0.96423510  0.81130997     0.15000
H3065       H  0.01841013  0.54144650  0.75531380     0.15000
C3066       C  0.02447313  0.55312671  0.80942712    -0.23900
H3067       H  0.44403528  0.94137217  0.77176268     0.05200
H3068       H  0.47179763  0.93883052  0.74445764     0.08500
H3069       H  0.94843124  0.95424354  0.74222408     0.08500
H3070       H  0.55393755  0.54983392  0.80191125     0.08500
H3071       H  0.02378740  0.55331013  0.83251710     0.08500
H3072       H  0.01119429  0.57333018  0.80196885     0.05200
C3073       C  0.76941028  0.88949444  0.04303296    -0.20600
C3074       C  0.74539037  0.90495824  0.02929417    -0.07100
C3075       C  0.72252360  0.88766842  0.01522892     0.13700
C3076       C  0.72415513  0.85550270  0.01564759    -0.20600
C3077       C  0.74810179  0.84003068  0.02948612    -0.07100
C3078       C  0.77106182  0.85732983  0.04342584     0.13700
C3079       C  0.79680482  0.84225939  0.05958536    -0.24000
H3080       H  0.78684293  0.90270173  0.05391257     0.15000
H3081       H  0.70669500  0.84229579  0.00480795     0.15000
C3082       C  0.69687478  0.90276207  0.99895923    -0.23900
H3083       H  0.81155311  0.85938037  0.07036993     0.05200
H3084       H  0.81175560  0.82910682  0.04523486     0.08500
H3085       H  0.78717459  0.82670502  0.07569885     0.08500
H3086       H  0.70660611  0.91849778  0.98304174     0.08500
H3087       H  0.68172306  0.91574189  0.01326438     0.08500
H3088       H  0.68232585  0.88566190  0.98791514     0.05200
C3089       C  0.77240233  0.63962713  0.02240080    -0.20600
C3090       C  0.74591915  0.65494328  0.03160434    -0.07100
C3091       C  0.72061521  0.63734224  0.04103331     0.13700
C3092       C  0.72243313  0.60517802  0.04049070    -0.20600
C3093       C  0.74882796  0.58985791  0.03103778    -0.07100
C3094       C  0.77428048  0.60748745  0.02196884     0.13700
C3095       C  0.80332825  0.59295574  0.01114567    -0.24000
H3096       H  0.79182098  0.65293830  0.01513356     0.15000
H3097       H  0.70301591  0.59185993  0.04774989     0.15000
C3098       C  0.69184453  0.65196151  0.05235481    -0.23900
H3099       H  0.82008966  0.61038521  0.00383401     0.05200
H3100       H  0.79785272  0.57777764  0.99320519     0.08500
H3101       H  0.81472144  0.57957908  0.02799381     0.08500
H3102       H  0.68001630  0.66521032  0.03567667     0.08500
H3103       H  0.69777925  0.66729786  0.07006920     0.08500
H3104       H  0.67529506  0.63457729  0.06013739     0.05200
C3105       C  0.52251888  0.89514239  0.01753776    -0.20600
C3106       C  0.99846669  0.90916700  0.03114606    -0.07100
C3107       C  0.97597064  0.89146297  0.04504246     0.13700
C3108       C  0.97744334  0.85931118  0.04361366    -0.20600
C3109       C  0.00084014  0.84432940  0.02882686    -0.07100
C3110       C  0.52401616  0.86302567  0.01623946     0.13700
C3111       C  0.54819982  0.84837844  0.99818989    -0.24000
H3112       H  0.53916764  0.90868725  0.00614034     0.15000
H3113       H  0.96046618  0.84572864  0.05456435     0.15000
C3114       C  0.95103843  0.90609897  0.06223675    -0.23900
H3115       H  0.56174836  0.86576786  0.98657889     0.05200
H3116       H  0.53709544  0.83302430  0.98265362     0.08500
H3117       H  0.56452368  0.83503210  0.01128145     0.08500
H3118       H  0.93564880  0.91993587  0.04863434     0.08500
H3119       H  0.96146308  0.92098861  0.07851893     0.08500
H3120       H  0.93662146  0.88867408  0.07290214     0.05200
C3121       C  0.52877814  0.64503268  0.04286542    -0.20600
C3122       C  0.00130576  0.65939893  0.03012860    -0.07100
C3123       C  0.97832802  0.64175259  0.01655928     0.13700
C3124       C  0.97982191  0.60959740  0.01781176    -0.20600
C3125       C  0.00380485  0.59446438  0.03189956    -0.07100
C3126       C  0.53056734  0.61284564  0.04340473     0.13700
C3127       C  0.55779376  0.59803365  0.05761547    -0.24000
H3128       H  0.54702898  0.65836644  0.05241755     0.15000
H3129       H  0.96227878  0.59612940  0.00735650     0.15000
C3130       C  0.95272497  0.65641429  0.99990003    -0.23900
H3131       H  0.57331497  0.61528411  0.06729006     0.05200
H3132       H  0.57145978  0.58495593  0.04218592     0.08500
H3133       H  0.54978304  0.58240977  0.07437274     0.08500
H3134       H  0.96250693  0.67166225  0.98362056     0.08500
H3135       H  0.93755890  0.66982321  0.01386102     0.08500
H3136       H  0.93817384  0.63902467  0.98923814     0.05200
C3137       C  0.89410050  0.77472985  0.54054486    -0.20600
C3138       C  0.90934954  0.74948096  0.52880945    -0.07100
C3139       C  0.89174392  0.72541868  0.51692445     0.13700
C3140       C  0.85957711  0.72708683  0.51760178    -0.20600
C3141       C  0.84431287  0.75217146  0.52955788    -0.07100
C3142       C  0.86188938  0.77642482  0.54114535     0.13700
C3143       C  0.84711438  0.80373660  0.55494275    -0.24000
H3144       H  0.90750376  0.79315011  0.54968634     0.15000
H3145       H  0.84618898  0.70866183  0.50844720     0.15000
C3146       C  0.90641077  0.69827222  0.50273461    -0.23900
H3147       H  0.86444346  0.81939319  0.56433110     0.05200
H3148       H  0.83166845  0.79589183  0.57186958     0.08500
H3149       H  0.83382604  0.81717081  0.53932520     0.08500
H3150       H  0.91955543  0.68442283  0.51814546     0.08500
H3151       H  0.92190063  0.70633839  0.48590694     0.08500
H3152       H  0.88901536  0.68287543  0.49309559     0.05200
C3153       C  0.60986408  0.76704669  0.54704170    -0.20600
C3154       C  0.59443789  0.74527557  0.53060816    -0.07100
C3155       C  0.61169835  0.72445572  0.51433040     0.13700
C3156       C  0.64393209  0.72604642  0.51497763    -0.20600
C3157       C  0.65931130  0.74807248  0.53119387    -0.07100
C3158       C  0.64204260  0.76862108  0.54770938     0.13700
C3159       C  0.65728483  0.79152484  0.56685811    -0.24000
H3160       H  0.59660294  0.78275724  0.55971336     0.15000
H3161       H  0.65723494  0.71036228  0.50231588     0.15000
C3162       C  0.59640814  0.70136642  0.49540993    -0.23900
H3163       H  0.64022669  0.80424816  0.57954325     0.05200
H3164       H  0.67026431  0.80866340  0.55449892     0.08500
H3165       H  0.67312494  0.77945040  0.58144153     0.08500
H3166       H  0.58080629  0.71332274  0.48053850     0.08500
H3167       H  0.58313330  0.68461180  0.50794809     0.08500
H3168       H  0.61345995  0.68824318  0.48305274     0.05200
C3169       C  0.88925676  0.52147962  0.54694339    -0.20600
C3170       C  0.90614422  0.99933913  0.53145287    -0.07100
C3171       C  0.88888210  0.97923022  0.51429338     0.13700
C3172       C  0.85666465  0.98025694  0.51517914    -0.20600
C3173       C  0.84122196  0.00096110  0.53256594    -0.07100
C3174       C  0.85702275  0.52270101  0.54740713     0.13700
C3175       C  0.84167144  0.54630814  0.56560608    -0.24000
H3176       H  0.90239133  0.53772444  0.55929000     0.15000
H3177       H  0.84338978  0.96514275  0.50180591     0.15000
C3178       C  0.90413773  0.95745731  0.49423106    -0.23900
H3179       H  0.85868685  0.56003332  0.57758653     0.05200
H3180       H  0.82631141  0.53475583  0.58078348     0.08500
H3181       H  0.82820256  0.56255942  0.55256293     0.08500
H3182       H  0.91773885  0.94008596  0.50589123     0.08500
H3183       H  0.91941104  0.97043483  0.47995424     0.08500
H3184       H  0.88704833  0.94492481  0.48125821     0.05200
C3185       C  0.60485085  0.51777524  0.51463922    -0.20600
C3186       C  0.59149558  0.00039704  0.53284015    -0.07100
C3187       C  0.60946690  0.98163224  0.55065985     0.13700
C3188       C  0.64160575  0.98242664  0.54852878    -0.20600
C3189       C  0.65628132  0.00177245  0.52934046    -0.07100
C3190       C  0.63703982  0.51869613  0.51294103     0.13700
C3191       C  0.65180080  0.53929221  0.49157366    -0.24000
H3192       H  0.59116190  0.53212486  0.50086838     0.15000
H3193       H  0.65544291  0.96823924  0.56231896     0.15000
C3194       C  0.59501126  0.96169800  0.57272353    -0.23900
H3195       H  0.63436681  0.55154835  0.47882715     0.05200
H3196       H  0.66627675  0.52545169  0.47730572     0.08500
H3197       H  0.66610651  0.55695108  0.50204774     0.08500
H3198       H  0.58074877  0.94359205  0.56284477     0.08500
H3199       H  0.58046782  0.97598827  0.58655649     0.08500
H3200       H  0.61259922  0.95012330  0.58592905     0.05200
C3201       C  0.89220688  0.72698689  0.37964194    -0.20600
C3202       C  0.90770444  0.75061092  0.39378985    -0.07100
C3203       C  0.89042841  0.77314696  0.40807419     0.13700
C3204       C  0.85824926  0.77177673  0.40724860    -0.20600
C3205       C  0.84273994  0.74834198  0.39289583    -0.07100
C3206       C  0.85998645  0.72552885  0.37895310     0.13700
C3207       C  0.84479247  0.70016029  0.36255274    -0.24000
H3208       H  0.90541915  0.70973828  0.36869598     0.15000
H3209       H  0.84504910  0.78901153  0.41822823     0.15000
C3210       C  0.90552435  0.79812754  0.42504926    -0.23900
H3211       H  0.86188900  0.68554794  0.35171306     0.05200
H3212       H  0.82923033  0.71011303  0.34647549     0.08500
H3213       H  0.83154735  0.68506655  0.37674897     0.08500
H3214       H  0.91861941  0.81374712  0.41121770     0.08500
H3215       H  0.92116709  0.78779280  0.44086397     0.08500
H3216       H  0.88838133  0.81230109  0.43629952     0.05200
C3217       C  0.60817955  0.77553235  0.40383694    -0.20600
C3218       C  0.59266691  0.74913513  0.39457141    -0.07100
C3219       C  0.61004278  0.72366720  0.38524772     0.13700
C3220       C  0.64220551  0.72545119  0.38543376    -0.20600
C3221       C  0.65771622  0.75190306  0.39453199    -0.07100
C3222       C  0.64036308  0.77730896  0.40401312     0.13700
C3223       C  0.65528449  0.80613895  0.41499395    -0.24000
H3224       H  0.59500525  0.79497904  0.41121348     0.15000
H3225       H  0.65537553  0.70599369  0.37807364     0.15000
C3226       C  0.59519456  0.69474581  0.37437019    -0.23900
H3227       H  0.63806480  0.82281258  0.42282460     0.05200
H3228       H  0.66824982  0.81769510  0.39810251     0.08500
H3229       H  0.67098468  0.80039631  0.43258728     0.08500
H3230       H  0.57961252  0.70033920  0.35664952     0.08500
H3231       H  0.58213957  0.68331350  0.39127672     0.08500
H3232       H  0.61245589  0.67800623  0.36673461     0.05200
C3233       C  0.85700925  0.52320698  0.38241939    -0.20600
C3234       C  0.84174129  0.49909910  0.39598539    -0.07100
C3235       C  0.86086460  0.97511681  0.38438992     0.13700
C3236       C  0.89299070  0.97734361  0.38515065    -0.20600
C3237       C  0.90661843  0.50206233  0.39581711    -0.07100
C3238       C  0.88915813  0.52499730  0.38206346     0.13700
C3239       C  0.90405934  0.55086997  0.36615522    -0.24000
H3240       H  0.84366194  0.54063879  0.37167116     0.15000
H3241       H  0.90655143  0.95769158  0.37888311     0.15000
C3242       C  0.84671588  0.94553468  0.37423669    -0.23900
H3243       H  0.88680897  0.56543341  0.35525112     0.05200
H3244       H  0.91980958  0.54141749  0.35016451     0.08500
H3245       H  0.91703262  0.56591583  0.38068501     0.08500
H3246       H  0.83132763  0.95018583  0.35615605     0.08500
H3247       H  0.83361626  0.93447398  0.39131344     0.08500
H3248       H  0.86439291  0.92884064  0.36732819     0.05200
C3249       C  0.60767310  0.97596325  0.38863137    -0.20600
C3250       C  0.59210243  0.50253835  0.39573111    -0.07100
C3251       C  0.60992795  0.52533659  0.40924686     0.13700
C3252       C  0.64207900  0.52387078  0.40769038    -0.20600
C3253       C  0.65688111  0.50054395  0.39271092    -0.07100
C3254       C  0.63973939  0.97378042  0.38746267     0.13700
C3255       C  0.65364288  0.94430496  0.37694900    -0.24000
H3256       H  0.59393003  0.95662213  0.38172348     0.15000
H3257       H  0.65580734  0.54090496  0.41855632     0.15000
C3258       C  0.59543464  0.55082508  0.42587313    -0.23900
H3259       H  0.63581643  0.92756543  0.37028388     0.05200
H3260       H  0.66738638  0.93324634  0.39374349     0.08500
H3261       H  0.66748678  0.46608314  0.34384168     0.08500
H3262       H  0.58235599  0.05036574  0.43744373     0.08500
H3263       H  0.58117295  0.56554408  0.41204378     0.08500
H3264       H  0.61296866  0.56597468  0.43557072     0.05200
C3265       C  0.76371017  0.77165761  0.26409474    -0.20600
C3266       C  0.74719185  0.74852458  0.25038589    -0.07100
C3267       C  0.73168397  0.72602296  0.26616780     0.13700
C3268       C  0.73304180  0.72730495  0.29541426    -0.20600
C3269       C  0.74905833  0.75083113  0.30928639    -0.07100
C3270       C  0.76459767  0.77337676  0.29332962     0.13700
C3271       C  0.78284072  0.79885396  0.30676319    -0.24000
H3272       H  0.77564473  0.78876578  0.25177934     0.15000
H3273       H  0.72123383  0.70995660  0.30753602     0.15000
C3274       C  0.71454664  0.70009892  0.25226948    -0.23900
H3275       H  0.79481693  0.81319701  0.29102983     0.05200
H3276       H  0.80053054  0.78903508  0.32098327     0.08500
H3277       H  0.76730986  0.81420140  0.31860174     0.08500
H3278       H  0.73032946  0.68714686  0.23846812     0.08500
H3279       H  0.69512508  0.70931091  0.23971585     0.08500
H3280       H  0.70493166  0.68379613  0.26777102     0.05200
C3281       C  0.76753580  0.85633049  0.15053582    -0.20600
C3282       C  0.74546221  0.84104673  0.16664916    -0.07100
C3283       C  0.72414870  0.85842514  0.18228044     0.13700
C3284       C  0.72573446  0.89058971  0.18153768    -0.20600
C3285       C  0.74808979  0.90585209  0.16572189    -0.07100
C3286       C  0.76900360  0.88846962  0.14965975     0.13700
C3287       C  0.79216342  0.90348697  0.13073353    -0.24000
H3288       H  0.78353712  0.84299424  0.13823406     0.15000
H3289       H  0.70969005  0.90394464  0.19377085     0.15000
C3290       C  0.70039684  0.84337353  0.20055399    -0.23900
H3291       H  0.80516422  0.88631161  0.11842107     0.05200
H3292       H  0.80910655  0.91669867  0.14322988     0.08500
H3293       H  0.78022780  0.91901080  0.11580000     0.08500
H3294       H  0.71184379  0.82784674  0.21579258     0.08500
H3295       H  0.68393889  0.83012268  0.18755454     0.08500
H3296       H  0.68693049  0.86052639  0.21248498     0.05200
C3297       C  0.72446093  0.60591358  0.15884831    -0.20600
C3298       C  0.75213356  0.59091774  0.16546665    -0.07100
C3299       C  0.77849606  0.60889756  0.17157365     0.13700
C3300       C  0.77607671  0.64104294  0.17153743    -0.20600
C3301       C  0.74823293  0.65602929  0.16536602    -0.07100
C3302       C  0.72209610  0.63800523  0.15852095     0.13700
C3303       C  0.69159490  0.65197174  0.15037219    -0.24000
H3304       H  0.70432999  0.59237138  0.15370702     0.15000
H3305       H  0.79623066  0.65458796  0.17658759     0.15000
C3306       C  0.80923574  0.59476870  0.17857237    -0.23900
H3307       H  0.67436528  0.63424278  0.14460776     0.05200
H3308       H  0.69454721  0.66720366  0.13198339     0.08500
H3309       H  0.68202219  0.66510201  0.16814391     0.08500
H3310       H  0.81778322  0.58143018  0.16049409     0.08500
H3311       H  0.80708260  0.57962559  0.19708155     0.08500
H3312       H  0.82683831  0.61242241  0.18353470     0.05200
C3313       C  0.72691946  0.98544561  0.26490324    -0.20600
C3314       C  0.75313662  0.49919597  0.25057956    -0.07100
C3315       C  0.76298433  0.52490080  0.26600393     0.13700
C3316       C  0.76174316  0.52396297  0.29527905    -0.20600
C3317       C  0.75147670  0.49763431  0.30953756    -0.07100
C3318       C  0.72570485  0.98496476  0.29414029     0.13700
C3319       C  0.69828708  0.97098292  0.30834586    -0.24000
H3320       H  0.70815153  0.97548782  0.25302582     0.15000
H3321       H  0.76910458  0.54387425  0.30707282     0.15000
C3322       C  0.77423481  0.55345408  0.25154381    -0.23900
H3323       H  0.68094140  0.96260462  0.29307195     0.05200
H3324       H  0.68710714  0.98835667  0.32185073     0.08500
H3325       H  0.70579121  0.95115657  0.32123370     0.08500
H3326       H  0.75600193  0.56256473  0.23749585     0.08500
H3327       H  0.79491723  0.54794125  0.23907282     0.08500
H3328       H  0.78051330  0.57171984  0.26667303     0.05200
C3329       C  0.52380872  0.73739234  0.29734158    -0.20600
C3330       C  0.99947269  0.75210098  0.30926485    -0.07100
C3331       C  0.97641624  0.76721673  0.29355449     0.13700
C3332       C  0.97832287  0.76738481  0.26436432    -0.20600
C3333       C  0.00255819  0.75279066  0.25038036    -0.07100
C3334       C  0.52616337  0.73746027  0.26815188     0.13700
C3335       C  0.55154772  0.71916844  0.25480552    -0.24000
H3336       H  0.54055669  0.72486133  0.30973663     0.15000
H3337       H  0.96056166  0.77900841  0.25241656     0.15000
C3338       C  0.94888941  0.78240730  0.30665266    -0.23900
H3339       H  0.56545989  0.70650687  0.27055202     0.05200
H3340       H  0.56733445  0.73472405  0.24344661     0.08500
H3341       H  0.54160453  0.70209480  0.24013547     0.08500
H3342       H  0.94802982  0.77969140  0.32960365     0.08500
H3343       H  0.92752990  0.77209465  0.29802424     0.08500
H3344       H  0.94904207  0.80729876  0.30168345     0.05200
C3345       C  0.97557277  0.86174510  0.16096525    -0.20600
C3346       C  0.50450180  0.84685982  0.16969750    -0.07100
C3347       C  0.52907425  0.86416736  0.18119567     0.13700
C3348       C  0.52711826  0.89633731  0.18154431    -0.20600
C3349       C  0.50119755  0.91188935  0.17112050    -0.07100
C3350       C  0.97350120  0.89386092  0.16161351     0.13700
C3351       C  0.94327504  0.90851503  0.15365412    -0.24000
H3352       H  0.95544025  0.84859903  0.15503763     0.15000
H3353       H  0.54599737  0.90948220  0.19026808     0.15000
C3354       C  0.55710801  0.84916362  0.19387993    -0.23900
H3355       H  0.92579561  0.89120536  0.14746674     0.05200
H3356       H  0.94655459  0.92419475  0.13563197     0.08500
H3357       H  0.93386891  0.92135733  0.17167461     0.08500
H3358       H  0.57006145  0.83662054  0.17760445     0.08500
H3359       H  0.55008960  0.83308661  0.21068050     0.08500
H3360       H  0.57302050  0.86626394  0.20324332     0.05200
C3361       C  0.52831106  0.64616411  0.15707436    -0.20600
C3362       C  0.50331458  0.66171816  0.16896714    -0.07100
C3363       C  0.97567374  0.64419488  0.17909289     0.13700
C3364       C  0.97722978  0.61205220  0.17937170    -0.20600
C3365       C  0.50577844  0.59673862  0.16886788    -0.07100
C3366       C  0.52989177  0.61398221  0.15681502     0.13700
C3367       C  0.55690325  0.59883403  0.14287613    -0.24000
H3368       H  0.54665271  0.65929705  0.14758458     0.15000
H3369       H  0.95844824  0.59908948  0.18834376     0.15000
C3370       C  0.94806336  0.65945710  0.19197444    -0.23900
H3371       H  0.57247547  0.61587979  0.13308130     0.05200
H3372       H  0.54864219  0.58310559  0.12625967     0.08500
H3373       H  0.57057694  0.58578867  0.15849311     0.08500
H3374       H  0.93494205  0.67223585  0.17579459     0.08500
H3375       H  0.95558824  0.67535077  0.20876679     0.08500
H3376       H  0.93212015  0.64249553  0.20138908     0.05200
C3377       C  0.97989594  0.52334653  0.29865467    -0.20600
C3378       C  0.00003502  0.50356964  0.31290403    -0.07100
C3379       C  0.52644808  0.99043824  0.29800455     0.13700
C3380       C  0.52581995  0.99159811  0.26872175    -0.20600
C3381       C  0.99877221  0.50498563  0.25396489    -0.07100
C3382       C  0.97876348  0.52409989  0.26935258     0.13700
C3383       C  0.95687330  0.54598287  0.25511047    -0.24000
H3384       H  0.96462436  0.53793378  0.31054396     0.15000
H3385       H  0.54340427  0.97965069  0.25705080     0.15000
C3386       C  0.55229845  0.97373882  0.31260956    -0.23900
H3387       H  0.94423505  0.56030178  0.27039392     0.05200
H3388       H  0.94212284  0.03427677  0.24169733     0.08500
H3389       H  0.96979725  0.56160640  0.24110035     0.08500
H3390       H  0.54307394  0.95426027  0.32491099     0.08500
H3391       H  0.56423466  0.49340821  0.32581720     0.08500
H3392       H  0.56917817  0.96435296  0.29755967     0.05200
loop_ 
_geom_bond_atom_site_label_1 
_geom_bond_atom_site_label_2 
_geom_bond_distance 
_geom_bond_site_symmetry_2 
_ccdc_geom_bond_type 
O1          V857   1.899       .  S
O1         C2555   1.264   1_455  A
O2            V9   1.899       .  S
O2         C1708   1.263       .  A
O3            V9   1.898       .  S
O3           C13   1.264       .  A
O4          V857   1.896       .  S
O4           C14   1.265   1_455  A
O5          V858   1.897       .  S
O5         C1710   1.263       .  A
O6           V10   1.897       .  S
O6         C1709   1.264       .  A
O7          V858   1.897       .  S
O7          C860   1.264       .  A
O8           V10   1.898       .  S
O8           C11   1.264       .  A
V9          O849   1.900       .  S
V9          O852   1.897   1_545  S
V9         V1706   2.086   1_455  T
V10         O853   1.898   1_545  S
V10         O855   1.898       .  S
V10        V1705   2.086       .  T
C11        O2545   1.265       .  A
C11         C837   1.484       .  S
C12        O1698   1.264       .  A
C12         O855   1.263       .  A
C12        C1027   1.466       .  S
C13        O1702   1.264   1_455  A
C13         C821   1.481       .  S
C14        O1701   1.264       .  A
C14         C805   1.487       .  S
O15          V23   1.894       .  S
O15        C1721   1.263   1_455  A
O16          V23   1.895       .  S
O16        C1722   1.263       .  A
O17          V23   1.899       .  S
O17          C27   1.264       .  A
O18          V23   1.896       .  S
O18          C28   1.264   1_455  A
O19          V24   1.901       .  S
O19        C1724   1.265       .  A
O20          V24   1.901       .  S
O20        C1723   1.266       .  A
O21          V24   1.901       .  S
O21          C26   1.264       .  A
O22          V24   1.903       .  S
O22          C25   1.265       .  A
V23        V1720   2.086   1_455  T
V24        V1719   2.086       .  T
C25        O1711   1.263       .  A
C25         C789   1.483       .  S
C26        O1712   1.263       .  A
C26         C195   1.463       .  S
C27        O1716   1.265   1_455  A
C27         C802   1.489       .  S
C28        O1715   1.263       .  A
C28         C818   1.482       .  S
O29         V885   1.897       .  S
O29         C887   1.263       .  A
O30          V37   1.897       .  S
O30          C40   1.263       .  A
O31          V37   1.898       .  S
O31          C41   1.264       .  A
O32         V885   1.899   1_545  S
O32          C42   1.266       .  A
O33         V886   1.895   1_545  S
O33          C42   1.263       .  A
O34          V38   1.899       .  S
O34          C41   1.264       .  A
O35         V886   1.900       .  S
O35         C888   1.264       .  A
O36          V38   1.902       .  S
O36          C39   1.264       .  A
V37         O877   1.896       .  S
V37         O880   1.897       .  S
V37          V38   2.086       .  T
V38         O881   1.898       .  S
V38         O883   1.898       .  S
C39         O877   1.264       .  A
C39        C1618   1.478       .  S
C40         O883   1.264       .  A
C40         C207   1.462       .  S
C41         C741   1.482       .  S
C42         C754   1.489       .  S
O43          V51   1.901       .  S
O43          C53   1.264       .  A
O44          V51   1.903       .  S
O44          C54   1.264       .  A
O45          V51   1.894       .  S
O45          C55   1.263       .  A
O46          V51   1.898       .  S
O46          C56   1.264       .  A
O47          V52   1.898       .  S
O47          C56   1.265       .  A
O48          V52   1.900       .  S
O48          C55   1.266       .  A
O49          V52   1.893       .  S
O49          C54   1.263       .  A
O50          V52   1.896       .  S
O50          C53   1.263       .  A
V51          V52   2.085       .  T
C53         C722   1.474       .  S
C54         C221   1.463       .  S
C55         C757   1.490       .  S
C56         C738   1.484       .  S
O57          V65   1.899       .  S
O57          C67   1.263       .  A
O58        V1761   1.901       .  S
O58        C1764   1.264   1_455  A
O59        V1761   1.896       .  S
O59          C69   1.263       .  A
O60          V65   1.893       .  S
O60          C70   1.263       .  A
O61          V66   1.901       .  S
O61         C918   1.267       .  A
O62        V1762   1.895   1_455  S
O62         C917   1.265       .  A
O63          V66   1.899       .  S
O63         C916   1.263       .  A
O64        V1762   1.896       .  S
O64        C2611   1.263       .  A
V65        O1754   1.896       .  S
V65        O1755   1.896       .  S
V65         V914   2.086   1_545  T
V66        O1758   1.897       .  S
V66        O1760   1.896       .  S
V66         V913   2.087       .  T
C67        O2608   1.264   1_545  A
C67         C834   1.474       .  S
C68        O1754   1.263       .  A
C68         O911   1.264   1_545  A
C68         C974   1.463   1_545  S
C69         O910   1.264   1_545  A
C69         C706   1.482       .  S
C70         O909   1.265   1_545  A
C70         C693   1.484       .  S
O71          V79   1.903       .  S
O71          C81   1.265       .  A
O72        V1775   1.899       .  S
O72        C1778   1.264       .  A
O73        V1775   1.896       .  S
O73          C83   1.265       .  A
O74          V79   1.896       .  S
O74          C84   1.263       .  A
O75          V80   1.896       .  S
O75          C84   1.265       .  A
O76        V1776   1.898       .  S
O76          C83   1.264       .  A
O77          V80   1.897       .  S
O77          C82   1.263       .  A
O78        V1776   1.898       .  S
O78        C1777   1.264   1_455  A
V79        O1768   1.902       .  S
V79        O1769   1.899       .  S
V79          V80   2.087       .  T
V80        O1772   1.895       .  S
V80        O1774   1.896       .  S
C81        O1774   1.263       .  A
C81         C786   1.474       .  S
C82        O1768   1.265       .  A
C82         C140   1.465       .  S
C83         C674   1.485       .  S
C84         C658   1.479       .  S
O85          V93   1.900       .  S
O85          C95   1.266   1_545  A
O86          V93   1.902       .  S
O86          C96   1.263   1_545  A
O87          V93   1.894       .  S
O87          C97   1.264   1_545  A
O88          V93   1.896       .  S
O88          C98   1.265   1_545  A
O89          V94   1.893       .  S
O89         C946   1.262       .  A
O90          V94   1.895       .  S
O90         C945   1.263       .  A
O91          V94   1.899       .  S
O91         C944   1.264       .  A
O92          V94   1.899       .  S
O92         C943   1.264       .  A
V93         V942   2.086   1_545  T
V94         V941   2.086       .  T
C95         O940   1.263       .  A
C95         C773   1.488       .  S
C96         O939   1.264       .  A
C96        C1002   1.465   1_565  S
C97         O938   1.263       .  A
C97         C690   1.481       .  S
C98         O937   1.263       .  A
C98         C709   1.482       .  S
O99         V107   1.896       .  S
O99         C109   1.263       .  A
O100        V107   1.897       .  S
O100        C110   1.263       .  A
O101        V107   1.897       .  S
O101        C111   1.264       .  A
O102        V107   1.896       .  S
O102        C112   1.264       .  A
O103        V108   1.897       .  S
O103        C112   1.265       .  A
O104        V108   1.896       .  S
O104        C111   1.263       .  A
O105        V108   1.901       .  S
O105        C110   1.265       .  A
O106        V108   1.901       .  S
O106        C109   1.265       .  A
V107        V108   2.086       .  T
C109        C725   1.482       .  S
C110        C167   1.465       .  S
C111        C661   1.479       .  S
C112        C677   1.485       .  S
O113        V121   1.903   1_455  S
O113        C971   1.266   1_545  A
O114       V1817   1.902       .  S
O114        C972   1.266   1_545  A
O115        V121   1.898       .  S
O115       C2669   1.263   1_545  A
O116       V1817   1.894       .  S
O116        C974   1.263   1_545  A
O117       V1818   1.899       .  S
O117       C1822   1.264       .  A
O118        V122   1.902       .  S
O118        C125   1.264       .  A
O119        V122   1.898       .  S
O119        C124   1.263       .  A
O120       V1818   1.898   1_455  S
O120        C123   1.264       .  A
V121       O1810   1.902       .  S
V121       O1812   1.898       .  S
V121       V2666   2.087   1_545  T
V122       O1813   1.903       .  S
V122       O1816   1.898       .  S
V122       V2665   2.087       .  T
C123        O961   1.265       .  A
C123        C642   1.480       .  S
C124        O962   1.266       .  A
C124        C626   1.482       .  S
C125       O2659   1.263       .  A
C125        C292   1.463       .  S
C126        O964   1.262       .  A
C126       O1813   1.265       .  A
C126        C916   1.465       .  S
O127        V135   1.898       .  S
O127        C137   1.264       .  A
O128       V1831   1.898       .  S
O128        C138   1.265       .  A
O129        V135   1.897       .  S
O129       C1835   1.263       .  A
O130       V1831   1.898       .  S
O130        C140   1.263       .  A
O131       V1832   1.899       .  S
O131       C1836   1.264       .  A
O132        V136   1.905       .  S
O132        C139   1.264       .  A
O133        V136   1.895       .  S
O133        C138   1.263       .  A
O134       V1832   1.896       .  S
O134        C137   1.263       .  A
V135       O1824   1.897   1_455  S
V135       O1826   1.899       .  S
V135       V1832   2.087       .  T
V136       O1827   1.902       .  S
V136       O1830   1.894       .  S
V136       V1831   2.087       .  T
C137        C610   1.477       .  S
C138        C594   1.483       .  S
C139       O1825   1.263       .  A
C139        C306   1.465       .  S
C140       O1827   1.265       .  A
O141        V149   1.899       .  S
O141        C999   1.264       .  A
O142        V149   1.898       .  S
O142       C1000   1.263       .  A
O143        V149   1.905       .  S
O143       C1001   1.265       .  A
O144        V149   1.905       .  S
O144       C1002   1.265       .  A
O145        V150   1.898       .  S
O145        C154   1.263       .  A
O146        V150   1.897       .  S
O146        C153   1.263       .  A
O147        V150   1.902       .  S
O147        C152   1.265       .  A
O148        V150   1.902       .  S
O148        C151   1.265       .  A
V149        V998   2.087   1_545  T
V150        V997   2.087       .  T
C151        O989   1.264       .  A
C151        C629   1.482       .  S
C152        O990   1.263       .  A
C152        C645   1.479       .  S
C153        O991   1.264       .  A
C153        C320   1.464       .  S
C154        O992   1.264       .  A
C154        C944   1.465       .  S
O155        V163   1.896       .  S
O155        C165   1.263       .  A
O156        V163   1.896       .  S
O156        C166   1.263       .  A
O157        V163   1.902       .  S
O157        C167   1.265       .  A
O158        V163   1.902       .  S
O158        C168   1.264       .  A
O159        V164   1.896       .  S
O159        C168   1.263       .  A
O160        V164   1.896       .  S
O160        C167   1.262       .  A
O161        V164   1.898       .  S
O161        C166   1.265       .  A
O162        V164   1.897       .  S
O162        C165   1.264       .  A
V163        V164   2.088       .  T
C165        C613   1.476       .  S
C166        C597   1.482       .  S
C168        C334   1.464       .  S
O169       V1025   1.898       .  S
O169       C1027   1.263       .  A
O170        V177   1.894   1_556  S
O170        C180   1.262       .  A
O171        V177   1.900       .  S
O171        C181   1.264       .  A
O172       V1025   1.900       .  S
O172        C182   1.266       .  A
O173       V1026   1.896       .  S
O173       C1878   1.263       .  A
O174        V178   1.896       .  S
O174       C1877   1.264       .  A
O175       V1026   1.899   1_556  S
O175       C2724   1.264       .  A
O176        V178   1.904       .  S
O176       C1875   1.265       .  A
V177       O1017   1.894       .  S
V177       O1020   1.899       .  S
V177       V1874   2.087       .  T
V178       O1021   1.895       .  S
V178       O1023   1.904   1_554  S
V178       V1873   2.087   1_455  T
C179       O1017   1.263       .  A
C179       O1872   1.265       .  A
C179        C860   1.465       .  S
C180       O2719   1.265       .  A
C180       C1084   1.464       .  S
C181       O1870   1.265       .  A
C181        C562   1.482       .  S
C182       O1869   1.264       .  A
C182        C581   1.489       .  S
O183        V191   1.901       .  S
O183       C1889   1.267       .  A
O184        V191   1.900       .  S
O184       C1890   1.264       .  A
O185        V191   1.898       .  S
O185       C1891   1.264       .  A
O186        V191   1.901   1_556  S
O186       C1892   1.263       .  A
O187        V192   1.901   1_556  S
O187        C196   1.265       .  A
O188        V192   1.901       .  S
O188        C195   1.264       .  A
O189        V192   1.898       .  S
O189        C194   1.264       .  A
O190        V192   1.898       .  S
O190        C193   1.263       .  A
V191       V1888   2.086   1_455  T
V192       V1887   2.087       .  T
C193       O1879   1.266       .  A
C193        C578   1.490       .  S
C194       O1880   1.264       .  A
C194        C565   1.480       .  S
C195       O1881   1.263       .  A
C196       O1882   1.262       .  A
C196        C250   1.464       .  S
O197        V205   1.896       .  S
O197        C207   1.263       .  A
O198       V1053   1.893   1_556  S
O198       C1056   1.263       .  A
O199       V1053   1.899   1_545  S
O199        C209   1.264       .  A
O200        V205   1.899       .  S
O200        C210   1.266       .  A
O201        V206   1.898       .  S
O201        C210   1.263       .  A
O202       V1054   1.897   1_545  S
O202        C209   1.264       .  A
O203        V206   1.901   1_556  S
O203        C208   1.264       .  A
O204       V1054   1.902       .  S
O204       C1055   1.265       .  A
V205       O1046   1.896   1_554  S
V205       O1047   1.900       .  S
V205        V206   2.087       .  T
V206       O1050   1.897       .  S
V206       O1052   1.899       .  S
C207       O1052   1.264       .  A
C208       O1046   1.263       .  A
C208       C1112   1.464       .  S
C209        C549   1.482       .  S
C210        C530   1.485       .  S
O211        V219   1.893       .  S
O211        C221   1.263       .  A
O212        V219   1.894   1_556  S
O212        C222   1.262       .  A
O213        V219   1.898       .  S
O213        C223   1.264       .  A
O214        V219   1.898       .  S
O214        C224   1.264       .  A
O215        V220   1.899       .  S
O215        C224   1.264       .  A
O216        V220   1.900       .  S
O216        C223   1.265       .  A
O217        V220   1.904   1_556  S
O217        C222   1.265       .  A
O218        V220   1.903       .  S
O218        C221   1.264       .  A
V219        V220   2.087       .  T
C222        C278   1.465       .  S
C223        C533   1.486       .  S
C224        C546   1.481       .  S
O225       V1081   1.898       .  S
O225       C1083   1.263       .  A
O226        V233   1.898       .  S
O226        C236   1.263       .  A
O227        V233   1.900       .  S
O227        C237   1.264       .  A
O228       V1081   1.896       .  S
O228        C238   1.263       .  A
O229       V1082   1.898       .  S
O229       C1934   1.265       .  A
O230        V234   1.896       .  S
O230       C1933   1.265       .  A
O231       V1082   1.903       .  S
O231       C2780   1.264       .  A
O232        V234   1.899       .  S
O232       C1931   1.264   1_545  A
V233       O1073   1.897       .  S
V233       O1076   1.900   1_545  S
V233       V1930   2.086       .  T
V234       O1077   1.898   1_545  S
V234       O1079   1.900   1_545  S
V234       V1929   2.086   1_455  T
C235       O1073   1.263       .  A
C235       O1928   1.265       .  A
C235        C514   1.473       .  S
C236       O2775   1.264       .  A
C236       C1028   1.466       .  S
C237       O1926   1.264       .  A
C237        C498   1.486       .  S
C238       O1925   1.265       .  A
C238        C482   1.485       .  S
O239        V247   1.896       .  S
O239        C249   1.263       .  A
O240        V247   1.897       .  S
O240        C250   1.263       .  A
O241        V247   1.894       .  S
O241        C251   1.265       .  A
O242        V247   1.896       .  S
O242        C252   1.265       .  A
O243        V248   1.896       .  S
O243       C1948   1.263       .  A
O244        V248   1.898       .  S
O244       C1947   1.263       .  A
O245        V248   1.904       .  S
O245       C1946   1.265       .  A
O246        V248   1.904       .  S
O246       C1945   1.265       .  A
V247       V1944   2.086       .  T
V248       V1943   2.086   1_455  T
C249       O1942   1.264       .  A
C249        C466   1.474       .  S
C250       O1941   1.264       .  A
C251       O1940   1.264       .  A
C251        C485   1.486       .  S
C252       O1939   1.263       .  A
C252        C501   1.485       .  S
O253        V261   1.900       .  S
O253        C263   1.264       .  A
O254       V1109   1.904       .  S
O254        C264   1.265       .  A
O255       V1109   1.898   1_545  S
O255        C265   1.264       .  A
O256        V261   1.895       .  S
O256        C266   1.263       .  A
O257        V262   1.900       .  S
O257        C266   1.266       .  A
O258       V1110   1.900   1_545  S
O258        C265   1.265       .  A
O259        V262   1.897       .  S
O259       C1112   1.263       .  A
O260       V1110   1.896       .  S
O260       C1111   1.263       .  A
V261       O1102   1.900       .  S
V261       O1103   1.896       .  S
V261        V262   2.085       .  T
V262       O1106   1.898       .  S
V262       O1108   1.898       .  S
C263       O1108   1.263       .  A
C263        C450   1.477       .  S
C264       O1107   1.262       .  A
C264       C1056   1.464       .  S
C265        C434   1.482       .  S
C266        C418   1.491       .  S
O267        V275   1.899       .  S
O267        C277   1.264       .  A
O268        V275   1.901       .  S
O268        C278   1.264       .  A
O269        V275   1.900       .  S
O269        C279   1.266       .  A
O270        V275   1.901       .  S
O270        C280   1.265       .  A
O271        V276   1.898       .  S
O271        C280   1.264       .  A
O272        V276   1.896       .  S
O272        C279   1.263       .  A
O273        V276   1.897       .  S
O273        C278   1.264       .  A
O274        V276   1.900       .  S
O274        C277   1.264       .  A
V275        V276   2.086       .  T
C277        C402   1.480       .  S
C279        C421   1.490       .  S
C280        C437   1.482       .  S
O281        V289   1.902       .  S
O281        C291   1.264       .  A
O282       V1985   1.900       .  S
O282       C1988   1.264       .  A
O283       V1985   1.896   1_455  S
O283        C293   1.263       .  A
O284        V289   1.897       .  S
O284        C294   1.265       .  A
O285        V290   1.898       .  S
O285       C1142   1.264       .  A
O286       V1986   1.893   1_455  S
O286       C1141   1.264   1_545  A
O287        V290   1.896       .  S
O287       C1140   1.263   1_545  A
O288       V1986   1.898       .  S
O288       C2835   1.265   1_545  A
V289       O1978   1.902       .  S
V289       O1979   1.898       .  S
V289       V1138   2.085       .  T
V290       O1982   1.898       .  S
V290       O1984   1.899       .  S
V290       V1137   2.086   1_545  T
C291       O2832   1.264       .  A
C291        C517   1.483       .  S
C292       O1978   1.264       .  A
C292       O1135   1.263       .  A
C293       O1134   1.264       .  A
C293        C386   1.483       .  S
C294       O1133   1.263       .  A
C294        C370   1.480       .  S
O295       V1999   1.899       .  S
O295       C2001   1.264       .  A
O296        V303   1.893       .  S
O296        C306   1.263       .  A
O297        V303   1.899       .  S
O297        C307   1.265       .  A
O298       V1999   1.899       .  S
O298        C308   1.264       .  A
O299       V2000   1.897       .  S
O299        C308   1.264       .  A
O300        V304   1.899       .  S
O300        C307   1.264       .  A
O301       V2000   1.901       .  S
O301       C2002   1.264       .  A
O302        V304   1.903       .  S
O302        C305   1.266       .  A
V303       O1991   1.892       .  S
V303       O1994   1.900       .  S
V303        V304   2.086       .  T
V304       O1995   1.898       .  S
V304       O1997   1.905       .  S
C305       O1991   1.262       .  A
C305        C469   1.481       .  S
C306       O1997   1.265       .  A
C307        C341   1.487       .  S
C308        C354   1.476       .  S
O309        V317   1.899       .  S
O309        C319   1.264       .  A
O310        V317   1.899       .  S
O310        C320   1.264       .  A
O311        V317   1.894       .  S
O311        C321   1.263       .  A
O312        V317   1.892       .  S
O312        C322   1.264       .  A
O313        V318   1.897       .  S
O313       C1170   1.264   1_545  A
O314        V318   1.895       .  S
O314       C1169   1.264   1_545  A
O315        V318   1.901       .  S
O315       C1168   1.263   1_545  A
O316        V318   1.899       .  S
O316       C1167   1.264   1_545  A
V317       V1166   2.086       .  T
V318       V1165   2.086   1_545  T
C319       O1164   1.264       .  A
C319        C453   1.479       .  S
C320       O1163   1.263       .  A
C321       O1162   1.265       .  A
C321        C373   1.480       .  S
C322       O1161   1.264       .  A
C322        C389   1.484       .  S
O323        V331   1.904       .  S
O323        C333   1.266       .  A
O324        V331   1.905       .  S
O324        C334   1.265       .  A
O325        V331   1.900       .  S
O325        C335   1.264       .  A
O326        V331   1.896       .  S
O326        C336   1.263       .  A
O327        V332   1.901       .  S
O327        C336   1.266       .  A
O328        V332   1.897       .  S
O328        C335   1.264       .  A
O329        V332   1.893       .  S
O329        C334   1.262       .  A
O330        V332   1.895       .  S
O330        C333   1.263       .  A
V331        V332   2.086       .  T
C333        C405   1.478       .  S
C335        C357   1.477       .  S
C336        C338   1.486       .  S
C337        C338   1.405       .  A
C337        C342   1.405       .  A
C337        H344   1.084       .  S
C338        C339   1.418       .  A
C339        C340   1.403       .  A
C339        C346   1.509       .  S
C340        C341   1.405       .  A
C340        H345   1.084       .  S
C341        C342   1.418       .  A
C342        C343   1.508       .  S
C343        H347   1.111       .  S
C343        H348   1.111       .  S
C343        H349   1.110       .  S
C346        H350   1.110       .  S
C346        H351   1.110       .  S
C346        H352   1.111       .  S
C353        C354   1.403       .  A
C353        C358   1.402       .  A
C353        H360   1.084       .  S
C354        C355   1.417       .  A
C355        C356   1.403       .  A
C355        C362   1.509       .  S
C356        C357   1.403       .  A
C356        H361   1.085       .  S
C357        C358   1.414       .  A
C358        C359   1.508       .  S
C359        H363   1.111       .  S
C359        H364   1.109       .  S
C359        H365   1.111       .  S
C362        H366   1.106       .  S
C362        H367   1.110       .  S
C362        H368   1.111       .  S
C369        C370   1.404       .  A
C369        C374   1.402       .  A
C369        H376   1.084       .  S
C370       C1219   1.416       .  A
C371        C372   1.402       .  A
C371       C1218   1.416   1_545  A
C371        C378   1.508       .  S
C372       C1221   1.405   1_545  A
C372        H377   1.084       .  S
C373        C374   1.417       .  A
C373       C1220   1.404       .  A
C374        C375   1.509       .  S
C375        H379   1.111       .  S
C375        H380   1.110       .  S
C375        H381   1.111       .  S
C378        H382   1.111       .  S
C378        H383   1.109       .  S
C378        H384   1.111       .  S
C385        C390   1.402       .  A
C385       C1234   1.405   1_545  A
C385        H392   1.084       .  S
C386        C387   1.417       .  A
C386       C1233   1.405       .  A
C387        C388   1.402       .  A
C387        C394   1.509       .  S
C388        C389   1.406       .  A
C388        H393   1.084       .  S
C389       C1238   1.417       .  A
C390       C1237   1.417   1_545  A
C390        C391   1.509       .  S
C391        H395   1.111       .  S
C391        H396   1.110       .  S
C391        H397   1.111       .  S
C394        H398   1.109       .  S
C394        H399   1.110       .  S
C394        H400   1.111       .  S
C401        C402   1.403       .  A
C401        C406   1.404       .  A
C401        H408   1.084       .  S
C402        C403   1.416       .  A
C403        C404   1.405       .  A
C403        C410   1.507       .  S
C404        C405   1.402       .  A
C404        H409   1.084       .  S
C405        C406   1.415       .  A
C406        C407   1.508       .  S
C407        H411   1.111       .  S
C407        H412   1.109       .  S
C407        H413   1.111       .  S
C410        H414   1.109       .  S
C410        H415   1.110       .  S
C410        H416   1.111       .  S
C417        C418   1.406       .  A
C417        C422   1.404       .  A
C417        H424   1.084       .  S
C418        C419   1.420       .  A
C419        C420   1.403       .  A
C419        C426   1.509       .  S
C420        C421   1.405       .  A
C420        H425   1.084       .  S
C421        C422   1.419       .  A
C422        C423   1.509       .  S
C423        H427   1.111       .  S
C423        H428   1.109       .  S
C423        H429   1.110       .  S
C426        H430   1.110       .  S
C426        H431   1.111       .  S
C426        H432   1.111       .  S
C433        C434   1.404       .  A
C433        C438   1.404       .  A
C433        H440   1.084       .  S
C434        C435   1.416       .  A
C435        C436   1.404       .  A
C435        C442   1.508       .  S
C436        C437   1.404       .  A
C436        H441   1.084       .  S
C437        C438   1.416       .  A
C438        C439   1.508       .  S
C439        H443   1.110       .  S
C439        H444   1.111       .  S
C439        H445   1.109       .  S
C442        H446   1.109       .  S
C442        H447   1.111       .  S
C442        H448   1.111       .  S
C449        C450   1.403       .  A
C449        C454   1.404       .  A
C449        H456   1.084       .  S
C450       C1299   1.414       .  A
C451        C452   1.403       .  A
C451       C1298   1.416   1_545  A
C451        C458   1.508       .  S
C452       C1301   1.402   1_545  A
C452        H457   1.084       .  S
C453        C454   1.415       .  A
C453       C1300   1.404       .  A
C454        C455   1.508       .  S
C455        H459   1.111       .  S
C455        H460   1.109       .  S
C455       H1309   1.111       .  S
C458        H463   1.111       .  S
C458        H464   1.111       .  S
C458       H1310   1.109       .  S
H461       C1303   1.111       .  S
H462       C1306   1.109       .  S
C465        C470   1.404       .  A
C465       C2162   1.404   1_655  A
C465        H472   1.084       .  S
C466        C467   1.412       .  A
C466       C2161   1.401       .  A
C467        C468   1.403       .  A
C467        C474   1.506       .  S
C468        C469   1.405       .  A
C468        H473   1.084       .  S
C469       C2166   1.418       .  A
C470       C2165   1.415   1_655  A
C470        C471   1.508       .  S
C471        H475   1.111       .  S
C471        H476   1.111       .  S
C471        H477   1.109       .  S
C474        H478   1.110       .  S
C474        H479   1.110       .  S
C474        H480   1.111       .  S
C481        C486   1.404       .  A
C481       C2178   1.405       .  A
C481        H488   1.084       .  S
C482        C483   1.417       .  A
C482       C2177   1.405       .  A
C483        C484   1.402       .  A
C483        C490   1.509       .  S
C484        C485   1.405       .  A
C484        H489   1.084       .  S
C485       C2182   1.418       .  A
C486       C2181   1.417       .  A
C486        C487   1.508       .  S
C487        H491   1.111       .  S
C487        H492   1.110       .  S
C487        H493   1.110       .  S
C490        H494   1.111       .  S
C490        H495   1.110       .  S
C490        H496   1.111       .  S
C497        C502   1.403       .  A
C497       C2194   1.406       .  A
C497        H504   1.084       .  S
C498        C499   1.417       .  A
C498       C2193   1.406       .  A
C499        C500   1.403       .  A
C499        C506   1.508       .  S
C500        C501   1.405       .  A
C500        H505   1.084       .  S
C501       C2198   1.417       .  A
C502       C2197   1.419       .  A
C502        C503   1.509       .  S
C503        H507   1.111       .  S
C503        H509   1.109       .  S
C503       H2204   1.110       .  S
C506        H510   1.111       .  S
C506        H512   1.111       .  S
C506       H2207   1.110       .  S
H508       C2199   1.110       .  S
H511       C2202   1.110       .  S
C513        C518   1.404       .  A
C513       C3058   1.401       .  A
C513        H520   1.084       .  S
C514        C515   1.414       .  A
C514       C3057   1.402   1_545  A
C515        C516   1.402       .  A
C515        C522   1.509       .  S
C516       C1365   1.405       .  A
C516        H521   1.085       .  S
C517       C1364   1.405       .  A
C517       C2214   1.417       .  A
C518       C2213   1.419       .  A
C518        C519   1.508       .  S
C519        H523   1.111       .  S
C519        H524   1.110       .  S
C519       H2221   1.111       .  S
C522        H527   1.107       .  S
C522        H528   1.111       .  S
C522       H2222   1.110       .  S
H525       C2215   1.111       .  S
H526       C2218   1.110       .  S
C529        C530   1.404       .  A
C529        C534   1.403       .  A
C529        H536   1.084       .  S
C530        C531   1.417       .  A
C531        C532   1.405       .  A
C531        C538   1.508       .  S
C532        C533   1.405       .  A
C532        H537   1.084       .  S
C533        C534   1.418       .  A
C534        C535   1.509       .  S
C535        H539   1.111       .  S
C535        H540   1.109       .  S
C535        H541   1.111       .  S
C538        H542   1.111   1_554  S
C538        H543   1.110       .  S
C538        H544   1.111   1_554  S
C545        C546   1.404       .  A
C545        C550   1.404       .  A
C545        H552   1.084       .  S
C546        C547   1.416       .  A
C547        C548   1.403       .  A
C547        C554   1.508       .  S
C548        C549   1.404       .  A
C548        H553   1.084       .  S
C549        C550   1.416       .  A
C550        C551   1.508   1_554  S
C551        H555   1.110       .  S
C551        H556   1.111       .  S
C551        H557   1.109   1_556  S
C554        H558   1.109       .  S
C554        H559   1.111       .  S
C554        H560   1.111       .  S
C561        C566   1.403       .  A
C561       C2258   1.405       .  A
C561        H568   1.084       .  S
C562        C563   1.415       .  A
C562       C2257   1.405       .  A
C563        C564   1.404       .  A
C563        C570   1.508       .  S
C564        C565   1.404       .  A
C564        H569   1.084       .  S
C565       C2262   1.415       .  A
C566       C2261   1.414       .  A
C566        C567   1.507       .  S
C567        H571   1.111   1_554  S
C567        H572   1.110   1_554  S
C567        H573   1.109       .  S
C570        H574   1.109       .  S
C570        H575   1.110       .  S
C570        H576   1.111       .  S
C577        C582   1.404       .  A
C577       C2274   1.406       .  A
C577        H584   1.083       .  S
C578        C579   1.419       .  A
C578       C2273   1.406       .  A
C579        C580   1.404       .  A
C579        C586   1.509       .  S
C580        C581   1.405       .  A
C580        H585   1.084       .  S
C581       C2278   1.418       .  A
C582       C2277   1.420       .  A
C582        C583   1.509       .  S
C583        H587   1.111       .  S
C583        H588   1.110       .  S
C583        H589   1.110       .  S
C586        H590   1.110   1_554  S
C586        H591   1.110       .  S
C586        H592   1.111       .  S
C593        C594   1.404       .  A
C593        C598   1.402       .  A
C593        H600   1.084       .  S
C594        C595   1.417       .  A
C595        C596   1.403       .  A
C595        C602   1.508       .  S
C596        C597   1.404       .  A
C596        H601   1.084       .  S
C597        C598   1.416       .  A
C598        C599   1.508       .  S
C599        H603   1.111       .  S
C599        H604   1.110       .  S
C599        H605   1.109       .  S
C602        H606   1.110       .  S
C602        H607   1.111       .  S
C602        H608   1.111       .  S
C609        C610   1.403       .  A
C609        C614   1.403       .  A
C609        H616   1.084       .  S
C610        C611   1.415       .  A
C611        C612   1.402       .  A
C611        C618   1.507       .  S
C612        C613   1.402       .  A
C612        H617   1.084       .  S
C613        C614   1.415       .  A
C614        C615   1.508       .  S
C615        H619   1.111       .  S
C615        H620   1.109       .  S
C615        H621   1.111       .  S
C618        H622   1.110       .  S
C618        H623   1.109       .  S
C618        H624   1.111       .  S
C625        C630   1.405       .  A
C625       C1474   1.404   1_545  A
C625        H632   1.084       .  S
C626        C627   1.416       .  A
C626       C1473   1.404       .  A
C627        C628   1.405       .  A
C627        C634   1.508       .  S
C628        C629   1.404       .  A
C628        H633   1.084       .  S
C629       C1478   1.416       .  A
C630       C1477   1.417       .  A
C630        C631   1.508       .  S
C631        H635   1.111       .  S
C631        H636   1.111       .  S
C631        H637   1.109       .  S
C634        H638   1.109       .  S
C634        H639   1.111       .  S
C634        H640   1.111       .  S
C641        C646   1.405       .  A
C641       C1490   1.404   1_545  A
C641        H648   1.084       .  S
C642        C643   1.414       .  A
C642       C1489   1.404       .  A
C643        C644   1.404       .  A
C643        C650   1.507       .  S
C644        C645   1.403       .  A
C644        H649   1.084       .  S
C645       C1494   1.415       .  A
C646       C1493   1.416       .  A
C646        C647   1.508       .  S
C647        H651   1.111       .  S
C647        H652   1.111       .  S
C647        H653   1.109       .  S
C650        H654   1.109       .  S
C650        H655   1.110       .  S
C650        H656   1.111       .  S
C657        C658   1.403       .  A
C657        C662   1.402       .  A
C657        H664   1.084       .  S
C658        C659   1.416       .  A
C659        C660   1.403       .  A
C659        C666   1.508       .  S
C660        C661   1.404       .  A
C660        H665   1.084       .  S
C661        C662   1.415       .  A
C662        C663   1.508       .  S
C663        H667   1.111       .  S
C663        H668   1.111       .  S
C663        H669   1.109       .  S
C666        H670   1.109       .  S
C666        H671   1.111       .  S
C666        H672   1.111       .  S
C673        C674   1.404       .  A
C673        C678   1.402       .  A
C673        H680   1.084       .  S
C674        C675   1.418       .  A
C675        C676   1.404       .  A
C675        C682   1.508       .  S
C676        C677   1.406       .  A
C676        H681   1.084       .  S
C677        C678   1.417       .  A
C678        C679   1.509       .  S
C679        H683   1.111       .  S
C679        H684   1.111       .  S
C679        H685   1.110       .  S
C682        H686   1.110       .  S
C682        H687   1.109       .  S
C682        H688   1.111       .  S
C689        C690   1.403   1_545  A
C689        C694   1.401       .  A
C689        H696   1.084       .  S
C690       C1539   1.416       .  A
C691        C692   1.403       .  A
C691       C1538   1.419       .  A
C691        C698   1.509       .  S
C692       C1541   1.405       .  A
C692        H697   1.084       .  S
C693        C694   1.418       .  A
C693       C1540   1.405   1_545  A
C694        C695   1.509       .  S
C695        H699   1.111       .  S
C695        H700   1.110       .  S
C695        H701   1.111       .  S
C698        H702   1.110       .  S
C698        H703   1.110       .  S
C698        H704   1.111       .  S
C705        C710   1.401       .  A
C705       C1554   1.404       .  A
C705        H712   1.085       .  S
C706        C707   1.417       .  A
C706       C1553   1.405   1_545  A
C707        C708   1.402       .  A
C707        C714   1.508       .  S
C708        C709   1.404   1_545  A
C708        H713   1.085       .  S
C709       C1558   1.417       .  A
C710       C1557   1.418       .  A
C710        C711   1.509       .  S
C711        H715   1.111       .  S
C711        H716   1.110       .  S
C711       H1565   1.107       .  S
C714        H719   1.109       .  S
C714        H720   1.111       .  S
C714       H1566   1.111       .  S
H717       C1559   1.109       .  S
H718       C1562   1.111       .  S
C721        C722   1.401       .  A
C721        C726   1.403       .  A
C721        H728   1.084       .  S
C722        C723   1.412       .  A
C723        C724   1.404       .  A
C723        C730   1.508       .  S
C724        C725   1.405       .  A
C724        H729   1.084       .  S
C725        C726   1.417       .  A
C726        C727   1.508       .  S
C727        H731   1.111       .  S
C727        H732   1.111       .  S
C727        H733   1.109       .  S
C730        H734   1.111       .  S
C730        H735   1.109       .  S
C730        H736   1.111       .  S
C737        C738   1.405       .  A
C737        C742   1.403       .  A
C737        H744   1.084       .  S
C738        C739   1.417       .  A
C739        C740   1.404       .  A
C739        C746   1.508       .  S
C740        C741   1.404       .  A
C740        H745   1.084       .  S
C741        C742   1.416       .  A
C742        C743   1.509       .  S
C743        H747   1.111       .  S
C743        H748   1.109       .  S
C743        H749   1.111       .  S
C746        H750   1.111       .  S
C746        H751   1.110       .  S
C746        H752   1.111       .  S
C753        C754   1.405       .  A
C753        C758   1.403       .  A
C753        H760   1.084       .  S
C754        C755   1.419       .  A
C755        C756   1.404       .  A
C755        C762   1.509       .  S
C756        C757   1.406       .  A
C756        H761   1.084       .  S
C757        C758   1.420       .  A
C758        C759   1.509       .  S
C759        H763   1.111       .  S
C759        H764   1.110       .  S
C759        H765   1.110       .  S
C762        H766   1.110       .  S
C762        H767   1.110       .  S
C762        H768   1.111       .  S
C769        C774   1.402       .  A
C769       C1618   1.402       .  A
C769        H776   1.084       .  S
C770        C887   1.470       .  S
C770        C771   1.409   1_565  A
C770       C1617   1.399       .  A
C771        C772   1.403       .  A
C771        C778   1.507       .  S
C772        C773   1.408   1_545  A
C772        H777   1.084       .  S
C773       C1622   1.421       .  A
C774       C1621   1.414       .  A
C774        C775   1.506       .  S
C775        H779   1.111       .  S
C775        H780   1.109       .  S
C775        H781   1.109       .  S
C778        H782   1.111       .  S
C778        H783   1.110       .  S
C778        H784   1.111       .  S
C785        C790   1.403       .  A
C785       C2482   1.401   1_455  A
C785        H792   1.084       .  S
C786        C787   1.414       .  A
C786       C2481   1.401       .  A
C787        C788   1.404       .  A
C787        C794   1.509       .  S
C788        C789   1.405       .  A
C788        H793   1.084       .  S
C789       C2486   1.417       .  A
C790       C2485   1.417   1_455  A
C790        C791   1.508       .  S
C791        H795   1.111       .  S
C791        H796   1.109       .  S
C791        H797   1.111       .  S
C794        H798   1.107       .  S
C794        H799   1.111       .  S
C794        H800   1.110       .  S
C801        C806   1.404       .  A
C801       C2498   1.405       .  A
C801        H808   1.084       .  S
C802        C803   1.418       .  A
C802       C2497   1.406   1_455  A
C803        C804   1.403       .  A
C803        C810   1.509       .  S
C804        C805   1.405   1_455  A
C804        H809   1.084       .  S
C805       C2502   1.418       .  A
C806       C2501   1.419       .  A
C806        C807   1.508       .  S
C807        H811   1.111       .  S
C807        H812   1.110       .  S
C807        H813   1.110       .  S
C810        H814   1.110       .  S
C810        H815   1.110       .  S
C810        H816   1.111       .  S
C817        C818   1.404   1_455  A
C817        C822   1.403       .  A
C817        H824   1.084       .  S
C818       C2515   1.416       .  A
C819        C820   1.404       .  A
C819       C2514   1.415       .  A
C819        C826   1.508       .  S
C820       C2517   1.405       .  A
C820        H825   1.084       .  S
C821        C822   1.416       .  A
C821       C2516   1.404   1_455  A
C822        C823   1.508       .  S
C823        H827   1.111       .  S
C823        H828   1.111       .  S
C823        H829   1.109       .  S
C826        H830   1.111       .  S
C826        H831   1.109       .  S
C826        H832   1.111       .  S
C833        C834   1.401       .  A
C833        C838   1.404       .  A
C833        H840   1.084       .  S
C834       C3379   1.412   1_545  A
C835        C836   1.403       .  A
C835       C3378   1.414       .  A
C835        C842   1.508       .  S
C836       C3381   1.403   1_455  A
C836        H841   1.084       .  S
C837        C838   1.418       .  A
C837       C3380   1.406   1_545  A
C838        C839   1.508       .  S
C839        H843   1.111       .  S
C839        H845   1.111       .  S
C839       H1692   1.109       .  S
C842        H846   1.109       .  S
C842        H848   1.111       .  S
C842       H1695   1.111       .  S
H844       C1687   1.110       .  S
H847       C1690   1.111       .  S
O849       C1707   1.264       .  A
O850        V857   1.900       .  S
O850       C2556   1.263       .  A
O851        V857   1.898       .  S
O851        C861   1.264       .  A
O852        C862   1.265   1_455  A
O853       C2558   1.264       .  A
O854        V858   1.896       .  S
O854       C2557   1.264       .  A
O856        V858   1.897       .  S
O856        C859   1.263       .  A
V857       V2554   2.086   1_455  T
V858       V2553   2.085       .  T
C859       O1697   1.266       .  A
C859       C1685   1.486       .  S
C860       O2546   1.264       .  A
C861       O2550   1.264   1_455  A
C861       C1669   1.482       .  S
C862       O2549   1.263       .  A
C862       C1653   1.488       .  S
O863        V871   1.898       .  S
O863       C2569   1.263       .  A
O864        V871   1.898       .  S
O864       C2570   1.264       .  A
O865        V871   1.898       .  S
O865        C875   1.264       .  A
O866        V871   1.897       .  S
O866        C876   1.265       .  A
O867        V872   1.898       .  S
O867       C2572   1.264       .  A
O868        V872   1.898       .  S
O868       C2571   1.265       .  A
O869        V872   1.900       .  S
O869        C874   1.264       .  A
O870        V872   1.897       .  S
O870        C873   1.264       .  A
V871       V2568   2.085   1_455  T
V872       V2567   2.085       .  T
C873       O2559   1.264       .  A
C873       C1637   1.481       .  S
C874       O2560   1.264       .  A
C874       C1043   1.467       .  S
C875       O2564   1.265   1_455  A
C875       C1650   1.489       .  S
C876       O2563   1.263   1_455  A
C876       C1666   1.484       .  S
O878        V885   1.898       .  S
O878        C888   1.263       .  A
O879        V885   1.896       .  S
O879        C889   1.264       .  A
O880        C890   1.266       .  A
O881        C890   1.263       .  A
O882        V886   1.896       .  S
O882        C889   1.263       .  A
O884        V886   1.900       .  S
O884        C887   1.263       .  A
V885        V886   2.086       .  T
C888       C1055   1.464       .  S
C889       C1589   1.479       .  S
C890       C1602   1.489       .  S
O891        V899   1.899       .  S
O891        C901   1.264       .  A
O892        V899   1.898       .  S
O892        C902   1.263       .  A
O893        V899   1.893       .  S
O893        C903   1.262       .  A
O894        V899   1.896       .  S
O894        C904   1.263       .  A
O895        V900   1.897       .  S
O895        C904   1.265       .  A
O896        V900   1.901       .  S
O896        C903   1.266       .  A
O897        V900   1.898       .  S
O897        C902   1.263       .  A
O898        V900   1.898       .  S
O898        C901   1.263       .  A
V899        V900   2.086       .  T
C901       C1570   1.474       .  S
C902       C1069   1.463       .  S
C903       C1605   1.490       .  S
C904       C1586   1.479       .  S
O905        V913   1.901       .  S
O905        C915   1.264       .  A
O906       V2609   1.900       .  S
O906       C2612   1.264       .  A
O907       V2609   1.897   1_455  S
O907        C917   1.263       .  A
O908        V913   1.890       .  S
O908        C918   1.261       .  A
O909        V914   1.896       .  S
O910       V2610   1.895       .  S
O911        V914   1.901       .  S
O912       V2610   1.896       .  S
O912       C1763   1.263   1_565  A
V913       O2602   1.900       .  S
V913       O2603   1.893       .  S
V914       O2606   1.892       .  S
V914       O2608   1.900       .  S
C915       O1760   1.263       .  A
C915       C1682   1.472       .  S
C916       O2602   1.264       .  A
C917       C1554   1.484       .  S
C918       C1541   1.488       .  S
O919        V927   1.899       .  S
O919        C929   1.264       .  A
O920       V2623   1.897       .  S
O920       C2626   1.263       .  A
O921       V2623   1.897       .  S
O921        C931   1.265       .  A
O922        V927   1.895       .  S
O922        C932   1.263       .  A
O923        V928   1.898       .  S
O923        C932   1.265       .  A
O924       V2624   1.895       .  S
O924        C931   1.263       .  A
O925        V928   1.898       .  S
O925        C930   1.263       .  A
O926       V2624   1.898       .  S
O926       C2625   1.263   1_455  A
V927       O2616   1.896       .  S
V927       O2617   1.896       .  S
V927        V928   2.087       .  T
V928       O2620   1.895       .  S
V928       O2622   1.896       .  S
C929       O2622   1.263       .  A
C929       C1634   1.471       .  S
C930       O2616   1.263       .  A
C930        C988   1.461       .  S
C931       C1522   1.484       .  S
C932       C1506   1.478       .  S
O933        V941   1.902       .  S
O933        C943   1.264       .  A
O934        V941   1.900       .  S
O934        C944   1.264       .  A
O935        V941   1.897       .  S
O935        C945   1.265       .  A
O936        V941   1.900       .  S
O936        C946   1.266       .  A
O937        V942   1.896       .  S
O938        V942   1.895       .  S
O939        V942   1.897       .  S
O940        V942   1.899       .  S
C943       C1621   1.479       .  S
C945       C1538   1.487       .  S
C946       C1557   1.485       .  S
O947        V955   1.900       .  S
O947        C957   1.264       .  A
O948        V955   1.900       .  S
O948        C958   1.264       .  A
O949        V955   1.896       .  S
O949        C959   1.264       .  A
O950        V955   1.898       .  S
O950        C960   1.264       .  A
O951        V956   1.896       .  S
O951        C960   1.265       .  A
O952        V956   1.896       .  S
O952        C959   1.263       .  A
O953        V956   1.897       .  S
O953        C958   1.263       .  A
O954        V956   1.897       .  S
O954        C957   1.264       .  A
V955        V956   2.086       .  T
C957       C1573   1.482       .  S
C958       C1015   1.464       .  S
C959       C1509   1.477       .  S
C960       C1525   1.485       .  S
O961        V969   1.903   1_455  S
O962       V2665   1.902       .  S
O963        V969   1.897       .  S
O963       C1821   1.263       .  A
O964       V2665   1.896       .  S
O965       V2666   1.899       .  S
O965       C2670   1.264   1_565  A
O966        V970   1.901       .  S
O966        C973   1.264       .  A
O967        V970   1.898       .  S
O967        C972   1.264       .  A
O968       V2666   1.897   1_455  S
O968        C971   1.263       .  A
V969       O2658   1.902       .  S
V969       O2660   1.896       .  S
V969       V1818   2.087       .  T
V970       O2661   1.902       .  S
V970       O2664   1.899       .  S
V970       V1817   2.087   1_565  T
C971       C1490   1.480       .  S
C972       C1474   1.483       .  S
C973       O1811   1.263   1_565  A
C973       C1140   1.463       .  S
C974       O2661   1.264       .  A
O975        V983   1.900       .  S
O975        C985   1.265       .  A
O976       V2679   1.899       .  S
O976        C986   1.265       .  A
O977        V983   1.895       .  S
O977       C2683   1.263       .  A
O978       V2679   1.893       .  S
O978        C988   1.262       .  A
O979       V2680   1.899       .  S
O979       C2684   1.263       .  A
O980        V984   1.906       .  S
O980        C987   1.265       .  A
O981        V984   1.897       .  S
O981        C986   1.263       .  A
O982       V2680   1.896       .  S
O982        C985   1.263       .  A
V983       O2672   1.900   1_455  S
V983       O2674   1.897       .  S
V983       V2680   2.087       .  T
V984       O2675   1.901       .  S
V984       O2678   1.899       .  S
V984       V2679   2.088       .  T
C985       C1458   1.483       .  S
C986       C1442   1.479       .  S
C987       O2673   1.262       .  A
C987       C1154   1.464       .  S
C988       O2675   1.264       .  A
O989        V997   1.898       .  S
O990        V997   1.899       .  S
O991        V997   1.900       .  S
O992        V997   1.901       .  S
O993        V998   1.893       .  S
O993       C1002   1.262   1_565  A
O994        V998   1.892       .  S
O994       C1001   1.262   1_565  A
O995        V998   1.902       .  S
O995       C1000   1.266   1_565  A
O996        V998   1.903       .  S
O996        C999   1.266   1_565  A
C999       C1477   1.484       .  S
C1000      C1493   1.480       .  S
C1001      C1168   1.464   1_545  S
O1003      V1011   1.897       .  S
O1003      C1013   1.264       .  A
O1004      V1011   1.898       .  S
O1004      C1014   1.264       .  A
O1005      V1011   1.900       .  S
O1005      C1015   1.264       .  A
O1006      V1011   1.898       .  S
O1006      C1016   1.263       .  A
O1007      V1012   1.898       .  S
O1007      C1016   1.264       .  A
O1008      V1012   1.897       .  S
O1008      C1015   1.263       .  A
O1009      V1012   1.898       .  S
O1009      C1014   1.265       .  A
O1010      V1012   1.899       .  S
O1010      C1013   1.265       .  A
V1011      V1012   2.088       .  T
C1013      C1461   1.482       .  S
C1014      C1445   1.480       .  S
C1016      C1182   1.463       .  S
O1018      V1025   1.898   1_556  S
O1018      C1028   1.264       .  A
O1019      V1025   1.899   1_565  S
O1019      C1029   1.264       .  A
O1020      C1030   1.266       .  A
O1021      C2726   1.263       .  A
O1022      V1026   1.896   1_565  S
O1022      C2725   1.264   1_455  A
O1023      C1876   1.265       .  A
O1024      V1026   1.900       .  S
O1024      C2723   1.264       .  A
V1025      V2722   2.087       .  T
V1026      V2721   2.086   1_455  T
C1027      O2720   1.264       .  A
C1028      O1871   1.264       .  A
C1029      O2718   1.265       .  A
C1029      C1410   1.481       .  S
C1030      O2717   1.264       .  A
C1030      C1429   1.486       .  S
O1031      V1039   1.901       .  S
O1031      C2737   1.266       .  A
O1032      V1039   1.900       .  S
O1032      C2738   1.265       .  A
O1033      V1039   1.897       .  S
O1033      C2739   1.263       .  A
O1034      V1039   1.897   1_556  S
O1034      C2740   1.263       .  A
O1035      V1040   1.902   1_556  S
O1035      C1044   1.264       .  A
O1036      V1040   1.901       .  S
O1036      C1043   1.264       .  A
O1037      V1040   1.898       .  S
O1037      C1042   1.264       .  A
O1038      V1040   1.898       .  S
O1038      C1041   1.264       .  A
V1039      V2736   2.087   1_455  T
V1040      V2735   2.087       .  T
C1041      O2727   1.266       .  A
C1041      C1426   1.486       .  S
C1042      O2728   1.264       .  A
C1042      C1413   1.480       .  S
C1043      O2729   1.264       .  A
C1044      O2730   1.263       .  A
C1044      C1098   1.466       .  S
O1045      V1053   1.896       .  S
O1045      C1055   1.263       .  A
O1047      C1057   1.264       .  A
O1048      V1053   1.899       .  S
O1048      C1058   1.266       .  A
O1049      V1054   1.898       .  S
O1049      C1058   1.263       .  A
O1050      C1057   1.265       .  A
O1051      V1054   1.904   1_556  S
O1051      C1056   1.264       .  A
V1053      V1054   2.087       .  T
C1057      C1397   1.482       .  S
C1058      C1378   1.489       .  S
O1059      V1067   1.899       .  S
O1059      C1069   1.264       .  A
O1060      V1067   1.898   1_556  S
O1060      C1070   1.264       .  A
O1061      V1067   1.897       .  S
O1061      C1071   1.263       .  A
O1062      V1067   1.898       .  S
O1062      C1072   1.264       .  A
O1063      V1068   1.899       .  S
O1063      C1072   1.264       .  A
O1064      V1068   1.899       .  S
O1064      C1071   1.266       .  A
O1065      V1068   1.900   1_556  S
O1065      C1070   1.264       .  A
O1066      V1068   1.898       .  S
O1066      C1069   1.263       .  A
V1067      V1068   2.087       .  T
C1070      C1126   1.464       .  S
C1071      C1381   1.488       .  S
C1072      C1394   1.481       .  S
O1074      V1081   1.895       .  S
O1074      C1084   1.263       .  A
O1075      V1081   1.898       .  S
O1075      C1085   1.264       .  A
O1076      C1086   1.264       .  A
O1077      C2782   1.265   1_455  A
O1078      V1082   1.895       .  S
O1078      C2781   1.265       .  A
O1079      C1932   1.264   1_565  A
O1080      V1082   1.901       .  S
O1080      C2779   1.264       .  A
V1081      V2778   2.086       .  T
V1082      V2777   2.086   1_455  T
C1083      O2776   1.264       .  A
C1083      C1362   1.473       .  S
C1084      O1927   1.264       .  A
C1085      O2774   1.265       .  A
C1085      C1346   1.485       .  S
C1086      O2773   1.265       .  A
C1086      C1330   1.487       .  S
O1087      V1095   1.901       .  S
O1087      C1097   1.264       .  A
O1088      V1095   1.900       .  S
O1088      C1098   1.264       .  A
O1089      V1095   1.899       .  S
O1089      C1099   1.265       .  A
O1090      V1095   1.901       .  S
O1090      C1100   1.266       .  A
O1091      V1096   1.891       .  S
O1091      C2796   1.262       .  A
O1092      V1096   1.895       .  S
O1092      C2795   1.263       .  A
O1093      V1096   1.900       .  S
O1093      C2794   1.264       .  A
O1094      V1096   1.901       .  S
O1094      C2793   1.264       .  A
V1095      V2792   2.086       .  T
V1096      V2791   2.085   1_455  T
C1097      O2790   1.264       .  A
C1097      C1314   1.477       .  S
C1098      O2789   1.264       .  A
C1099      O2788   1.264       .  A
C1099      C1333   1.488       .  S
C1100      O2787   1.263       .  A
C1100      C1349   1.486       .  S
O1101      V1109   1.901       .  S
O1101      C1111   1.265       .  A
O1102      C1112   1.264       .  A
O1103      C1113   1.263       .  A
O1104      V1109   1.896       .  S
O1104      C1114   1.263       .  A
O1105      V1110   1.901       .  S
O1105      C1114   1.265       .  A
O1106      C1113   1.265       .  A
O1107      V1110   1.893       .  S
V1109      V1110   2.087       .  T
C1111      C1298   1.480       .  S
C1113      C1282   1.487       .  S
C1114      C1266   1.479       .  S
O1115      V1123   1.900       .  S
O1115      C1125   1.264       .  A
O1116      V1123   1.901       .  S
O1116      C1126   1.264       .  A
O1117      V1123   1.900       .  S
O1117      C1127   1.265       .  A
O1118      V1123   1.896       .  S
O1118      C1128   1.265       .  A
O1119      V1124   1.898       .  S
O1119      C1128   1.264       .  A
O1120      V1124   1.896       .  S
O1120      C1127   1.263       .  A
O1121      V1124   1.897       .  S
O1121      C1126   1.263       .  A
O1122      V1124   1.898       .  S
O1122      C1125   1.264       .  A
V1123      V1124   2.086       .  T
C1125      C1250   1.476       .  S
C1127      C1269   1.479       .  S
C1128      C1285   1.486       .  S
O1129      V1137   1.900       .  S
O1129      C1139   1.264   1_565  A
O1130      V2833   1.900       .  S
O1130      C2836   1.264       .  A
O1131      V2833   1.896   1_455  S
O1131      C1141   1.263       .  A
O1132      V1137   1.892       .  S
O1132      C1142   1.264   1_565  A
O1133      V1138   1.895       .  S
O1134      V2834   1.892   1_455  S
O1135      V1138   1.894       .  S
O1136      V2834   1.899       .  S
O1136      C1987   1.265       .  A
V1137      O2826   1.900       .  S
V1137      O2827   1.893       .  S
V1138      O2830   1.893       .  S
V1138      O2832   1.897       .  S
C1139      O1984   1.264       .  A
C1139      C1365   1.482       .  S
C1140      O2826   1.264       .  A
C1141      C1234   1.482       .  S
C1142      C1218   1.480   1_545  S
O1143      V2847   1.895       .  S
O1143      C2849   1.263       .  A
O1144      V1151   1.894       .  S
O1144      C1154   1.263       .  A
O1145      V1151   1.896       .  S
O1145      C1155   1.265       .  A
O1146      V2847   1.900       .  S
O1146      C1156   1.264       .  A
O1147      V2848   1.897       .  S
O1147      C1156   1.263       .  A
O1148      V1152   1.899       .  S
O1148      C1155   1.264       .  A
O1149      V2848   1.901       .  S
O1149      C2850   1.264       .  A
O1150      V1152   1.902       .  S
O1150      C1153   1.266       .  A
V1151      O2839   1.896       .  S
V1151      O2842   1.898       .  S
V1151      V1152   2.086       .  T
V1152      O2843   1.898       .  S
V1152      O2845   1.904       .  S
C1153      O2839   1.263       .  A
C1153      C1317   1.482       .  S
C1154      O2845   1.264       .  A
C1155      C1189   1.488       .  S
C1156      C1202   1.474       .  S
O1157      V1165   1.899       .  S
O1157      C1167   1.264       .  A
O1158      V1165   1.897       .  S
O1158      C1168   1.264       .  A
O1159      V1165   1.894       .  S
O1159      C1169   1.263       .  A
O1160      V1165   1.892       .  S
O1160      C1170   1.264       .  A
O1161      V1166   1.898       .  S
O1162      V1166   1.897       .  S
O1163      V1166   1.898       .  S
O1164      V1166   1.899       .  S
C1167      C1301   1.476       .  S
C1169      C1221   1.480       .  S
C1170      C1237   1.484       .  S
O1171      V1179   1.899       .  S
O1171      C1181   1.265       .  A
O1172      V1179   1.900       .  S
O1172      C1182   1.264       .  A
O1173      V1179   1.897       .  S
O1173      C1183   1.264       .  A
O1174      V1179   1.895       .  S
O1174      C1184   1.263       .  A
O1175      V1180   1.900       .  S
O1175      C1184   1.266       .  A
O1176      V1180   1.899       .  S
O1176      C1183   1.264       .  A
O1177      V1180   1.896       .  S
O1177      C1182   1.263       .  A
O1178      V1180   1.899       .  S
O1178      C1181   1.264       .  A
V1179      V1180   2.086       .  T
C1181      C1253   1.481       .  S
C1183      C1205   1.475       .  S
C1184      C1186   1.487       .  S
C1185      C1186   1.405       .  A
C1185      C1190   1.404       .  A
C1185      H1192   1.084       .  S
C1186      C1187   1.418       .  A
C1187      C1188   1.403       .  A
C1187      C1194   1.509       .  S
C1188      C1189   1.405       .  A
C1188      H1193   1.084       .  S
C1189      C1190   1.418       .  A
C1190      C1191   1.508       .  S
C1191      H1195   1.111       .  S
C1191      H1196   1.111       .  S
C1191      H1197   1.110       .  S
C1194      H1198   1.110       .  S
C1194      H1199   1.110       .  S
C1194      H1200   1.111       .  S
C1201      C1202   1.404       .  A
C1201      C1206   1.404       .  A
C1201      H1208   1.084       .  S
C1202      C1203   1.415       .  A
C1203      C1204   1.402       .  A
C1203      C1210   1.509       .  S
C1204      C1205   1.402       .  A
C1204      H1209   1.085       .  S
C1205      C1206   1.413       .  A
C1206      C1207   1.508       .  S
C1207      H1211   1.111       .  S
C1207      H1212   1.109       .  S
C1207      H1213   1.111       .  S
C1210      H1214   1.106       .  S
C1210      H1215   1.110       .  S
C1210      H1216   1.111       .  S
C1217      C1218   1.404       .  A
C1217      C1222   1.401       .  A
C1217      H1224   1.084       .  S
C1219      C1220   1.402       .  A
C1219      C1226   1.508       .  S
C1220      H1225   1.084       .  S
C1221      C1222   1.416       .  A
C1222      C1223   1.509       .  S
C1223      H1227   1.111       .  S
C1223      H1228   1.110       .  S
C1223      H1229   1.111       .  S
C1226      H1230   1.111       .  S
C1226      H1231   1.109       .  S
C1226      H1232   1.111       .  S
C1233      C1238   1.401       .  A
C1233      H1240   1.084       .  S
C1234      C1235   1.416       .  A
C1235      C1236   1.402       .  A
C1235      C1242   1.509       .  S
C1236      C1237   1.406       .  A
C1236      H1241   1.084       .  S
C1238      C1239   1.509       .  S
C1239      H1243   1.111       .  S
C1239      H1244   1.110       .  S
C1239      H1245   1.111       .  S
C1242      H1246   1.110       .  S
C1242      H1247   1.110       .  S
C1242      H1248   1.111       .  S
C1249      C1250   1.402       .  A
C1249      C1254   1.405       .  A
C1249      H1256   1.084       .  S
C1250      C1251   1.413       .  A
C1251      C1252   1.403       .  A
C1251      C1258   1.508       .  S
C1252      C1253   1.404       .  A
C1252      H1257   1.084       .  S
C1253      C1254   1.417       .  A
C1254      C1255   1.508       .  S
C1255      H1259   1.111       .  S
C1255      H1260   1.109       .  S
C1255      H1261   1.111       .  S
C1258      H1262   1.109       .  S
C1258      H1263   1.111       .  S
C1258      H1264   1.111       .  S
C1265      C1266   1.403       .  A
C1265      C1270   1.403       .  A
C1265      H1272   1.084       .  S
C1266      C1267   1.415       .  A
C1267      C1268   1.403       .  A
C1267      C1274   1.508       .  S
C1268      C1269   1.403       .  A
C1268      H1273   1.084       .  S
C1269      C1270   1.416       .  A
C1270      C1271   1.508       .  S
C1271      H1275   1.111       .  S
C1271      H1276   1.109       .  S
C1271      H1277   1.110       .  S
C1274      H1278   1.111       .  S
C1274      H1279   1.109       .  S
C1274      H1280   1.111       .  S
C1281      C1282   1.406       .  A
C1281      C1286   1.403       .  A
C1281      H1288   1.084       .  S
C1282      C1283   1.418       .  A
C1283      C1284   1.403       .  A
C1283      C1290   1.509       .  S
C1284      C1285   1.405       .  A
C1284      H1289   1.084       .  S
C1285      C1286   1.417       .  A
C1286      C1287   1.509       .  S
C1287      H1291   1.111       .  S
C1287      H1292   1.111       .  S
C1287      H1293   1.110       .  S
C1290      H1294   1.110       .  S
C1290      H1295   1.110       .  S
C1290      H1296   1.111       .  S
C1297      C1298   1.404       .  A
C1297      C1302   1.404       .  A
C1297      H1304   1.084       .  S
C1299      C1300   1.404       .  A
C1299      C1306   1.508       .  S
C1300      H1305   1.084       .  S
C1301      C1302   1.414       .  A
C1302      C1303   1.508       .  S
C1303      H1307   1.111       .  S
C1303      H1308   1.109       .  S
C1306      H1311   1.111       .  S
C1306      H1312   1.111       .  S
C1313      C3010   1.401   1_655  A
C1313      C1318   1.404       .  A
C1313      H1320   1.084       .  S
C1314      C3009   1.401       .  A
C1314      C1315   1.413       .  A
C1315      C1316   1.403       .  A
C1315      C1322   1.505       .  S
C1316      C1317   1.403       .  A
C1316      H1321   1.084       .  S
C1317      C3014   1.418       .  A
C1318      C3013   1.418   1_655  A
C1318      C1319   1.508       .  S
C1319      H1323   1.111       .  S
C1319      H1324   1.111       .  S
C1319      H1325   1.109       .  S
C1322      H1326   1.110       .  S
C1322      H1327   1.109       .  S
C1322      H1328   1.111       .  S
C1329      C3026   1.405       .  A
C1329      C1334   1.403       .  A
C1329      H1336   1.084       .  S
C1330      C3025   1.405       .  A
C1330      C1331   1.417       .  A
C1331      C1332   1.405       .  A
C1331      C1338   1.508       .  S
C1332      C1333   1.406       .  A
C1332      H1337   1.084       .  S
C1333      C3030   1.418       .  A
C1334      C3029   1.419       .  A
C1334      C1335   1.509       .  S
C1335      H1339   1.111       .  S
C1335      H1340   1.110       .  S
C1335      H1341   1.110       .  S
C1338      H1342   1.111       .  S
C1338      H1343   1.110       .  S
C1338      H1344   1.111       .  S
C1345      C3042   1.405   1_455  A
C1345      C1350   1.401       .  A
C1345      H1352   1.084       .  S
C1346      C3041   1.404       .  A
C1346      C1347   1.417       .  A
C1347      C1348   1.404       .  A
C1347      C1354   1.508       .  S
C1348      C1349   1.405       .  A
C1348      H1353   1.084       .  S
C1349      C3046   1.418       .  A
C1350      C3045   1.419       .  A
C1350      C1351   1.510       .  S
C1351      H1355   1.111       .  S
C1351      H3052   1.110       .  S
C1351      H1357   1.109       .  S
C1354      H1358   1.111       .  S
C1354      H3055   1.109       .  S
C1354      H1360   1.111       .  S
H1356      C3047   1.110       .  S
H1359      C3050   1.110       .  S
C1361      C2210   1.402       .  A
C1361      C1366   1.405       .  A
C1361      H1368   1.085       .  S
C1362      C2209   1.403       .  A
C1362      C1363   1.413       .  A
C1363      C1364   1.402       .  A
C1363      C1370   1.509       .  S
C1364      H1369   1.085       .  S
C1365      C3062   1.417   1_545  A
C1366      C3061   1.418       .  A
C1366      C1367   1.508       .  S
C1367      H1371   1.111       .  S
C1367      H1372   1.110       .  S
C1367      H3069   1.111       .  S
C1370      H3070   1.110       .  S
C1370      H1375   1.107       .  S
C1370      H1376   1.111       .  S
H1373      C3063   1.111       .  S
H1374      C3066   1.110       .  S
C1377      C1378   1.406       .  A
C1377      C1382   1.404       .  A
C1377      H1384   1.084       .  S
C1378      C1379   1.419       .  A
C1379      C1380   1.404       .  A
C1379      C1386   1.509       .  S
C1380      C1381   1.405       .  A
C1380      H1385   1.084       .  S
C1381      C1382   1.418       .  A
C1382      C1383   1.509       .  S
C1383      H1387   1.111       .  S
C1383      H1388   1.110   1_554  S
C1383      H1389   1.110       .  S
C1386      H1390   1.110       .  S
C1386      H1391   1.111       .  S
C1386      H1392   1.111       .  S
C1393      C1394   1.404       .  A
C1393      C1398   1.404       .  A
C1393      H1400   1.084       .  S
C1394      C1395   1.415       .  A
C1395      C1396   1.403       .  A
C1395      C1402   1.509       .  S
C1396      C1397   1.405       .  A
C1396      H1401   1.084       .  S
C1397      C1398   1.416       .  A
C1398      C1399   1.508   1_554  S
C1399      H1403   1.111       .  S
C1399      H1404   1.111       .  S
C1399      H1405   1.110   1_556  S
C1402      H1406   1.109       .  S
C1402      H1407   1.111       .  S
C1402      H1408   1.111       .  S
C1409      C3106   1.405   1_455  A
C1409      C1414   1.403       .  A
C1409      H1416   1.084       .  S
C1410      C3105   1.404       .  A
C1410      C1411   1.416       .  A
C1411      C1412   1.404       .  A
C1411      C1418   1.508       .  S
C1412      C1413   1.404       .  A
C1412      H1417   1.084       .  S
C1413      C3110   1.415       .  A
C1414      C3109   1.415       .  A
C1414      C1415   1.508   1_554  S
C1415      H1419   1.111       .  S
C1415      H1420   1.111       .  S
C1415      H1421   1.109   1_556  S
C1418      H1422   1.109       .  S
C1418      H1423   1.110       .  S
C1418      H1424   1.111       .  S
C1425      C3122   1.404       .  A
C1425      C1430   1.404       .  A
C1425      H1432   1.084       .  S
C1426      C3121   1.405       .  A
C1426      C1427   1.417       .  A
C1427      C1428   1.403       .  A
C1427      C1434   1.509       .  S
C1428      C1429   1.404       .  A
C1428      H1433   1.084       .  S
C1429      C3126   1.418       .  A
C1430      C3125   1.417       .  A
C1430      C1431   1.508       .  S
C1431      H1435   1.111       .  S
C1431      H1436   1.109       .  S
C1431      H1437   1.110       .  S
C1434      H1438   1.111   1_554  S
C1434      H1439   1.109       .  S
C1434      H1440   1.111   1_554  S
C1441      C1442   1.403       .  A
C1441      C1446   1.403       .  A
C1441      H1448   1.084       .  S
C1442      C1443   1.416       .  A
C1443      C1444   1.403       .  A
C1443      C1450   1.508       .  S
C1444      C1445   1.404       .  A
C1444      H1449   1.084       .  S
C1445      C1446   1.416       .  A
C1446      C1447   1.508       .  S
C1447      H1451   1.111       .  S
C1447      H1452   1.110       .  S
C1447      H1453   1.109       .  S
C1450      H1454   1.109       .  S
C1450      H1455   1.111       .  S
C1450      H1456   1.111       .  S
C1457      C1458   1.404       .  A
C1457      C1462   1.403       .  A
C1457      H1464   1.084       .  S
C1458      C1459   1.417       .  A
C1459      C1460   1.403       .  A
C1459      C1466   1.508       .  S
C1460      C1461   1.404       .  A
C1460      H1465   1.084       .  S
C1461      C1462   1.416       .  A
C1462      C1463   1.508       .  S
C1463      H1467   1.111       .  S
C1463      H1468   1.109       .  S
C1463      H1469   1.111       .  S
C1466      H1470   1.110       .  S
C1466      H1471   1.110       .  S
C1466      H1472   1.111       .  S
C1473      C1478   1.404       .  A
C1473      H1480   1.084       .  S
C1474      C1475   1.417       .  A
C1475      C1476   1.404       .  A
C1475      C1482   1.508       .  S
C1476      C1477   1.404   1_565  A
C1476      H1481   1.084       .  S
C1478      C1479   1.508       .  S
C1479      H1483   1.111       .  S
C1479      H1484   1.111       .  S
C1479      H1485   1.109       .  S
C1482      H1486   1.109       .  S
C1482      H1487   1.111       .  S
C1482      H1488   1.111       .  S
C1489      C1494   1.405       .  A
C1489      H1496   1.084       .  S
C1490      C1491   1.415       .  A
C1491      C1492   1.403       .  A
C1491      C1498   1.508       .  S
C1492      C1493   1.403   1_565  A
C1492      H1497   1.084       .  S
C1494      C1495   1.508       .  S
C1495      H1499   1.111       .  S
C1495      H1500   1.111       .  S
C1495      H1501   1.109       .  S
C1498      H1502   1.109       .  S
C1498      H1503   1.110       .  S
C1498      H1504   1.111       .  S
C1505      C1506   1.403       .  A
C1505      C1510   1.402       .  A
C1505      H1512   1.084       .  S
C1506      C1507   1.416       .  A
C1507      C1508   1.403       .  A
C1507      C1514   1.508       .  S
C1508      C1509   1.403       .  A
C1508      H1513   1.084       .  S
C1509      C1510   1.414       .  A
C1510      C1511   1.508       .  S
C1511      H1515   1.111       .  S
C1511      H1516   1.111       .  S
C1511      H1517   1.109       .  S
C1514      H1518   1.109       .  S
C1514      H1519   1.111       .  S
C1514      H1520   1.111       .  S
C1521      C1522   1.405       .  A
C1521      C1526   1.403       .  A
C1521      H1528   1.084       .  S
C1522      C1523   1.417       .  A
C1523      C1524   1.402       .  A
C1523      C1530   1.509       .  S
C1524      C1525   1.405       .  A
C1524      H1529   1.084       .  S
C1525      C1526   1.417       .  A
C1526      C1527   1.508       .  S
C1527      H1531   1.111       .  S
C1527      H1532   1.110       .  S
C1527      H1533   1.110       .  S
C1530      H1534   1.110       .  S
C1530      H1535   1.110       .  S
C1530      H1536   1.111       .  S
C1537      C1538   1.404       .  A
C1537      C1542   1.402       .  A
C1537      H1544   1.084       .  S
C1539      C1540   1.402       .  A
C1539      C1546   1.509       .  S
C1540      H1545   1.084       .  S
C1541      C1542   1.420       .  A
C1542      C1543   1.509       .  S
C1543      H1547   1.111       .  S
C1543      H1548   1.110       .  S
C1543      H1549   1.110       .  S
C1546      H1550   1.111       .  S
C1546      H1551   1.110       .  S
C1546      H1552   1.111       .  S
C1553      C1558   1.402       .  A
C1553      H1560   1.085       .  S
C1554      C1555   1.417       .  A
C1555      C1556   1.404       .  A
C1555      C1562   1.508       .  S
C1556      C1557   1.405       .  A
C1556      H1561   1.085       .  S
C1558      C1559   1.508       .  S
C1559      H1563   1.111       .  S
C1559      H1564   1.109       .  S
C1562      H1567   1.109       .  S
C1562      H1568   1.111       .  S
C1569      C1570   1.402       .  A
C1569      C1574   1.404       .  A
C1569      H1576   1.085       .  S
C1570      C1571   1.412       .  A
C1571      C1572   1.403       .  A
C1571      C1578   1.508       .  S
C1572      C1573   1.405       .  A
C1572      H1577   1.084       .  S
C1573      C1574   1.417       .  A
C1574      C1575   1.508       .  S
C1575      H1579   1.111       .  S
C1575      H1580   1.111       .  S
C1575      H1581   1.109       .  S
C1578      H1582   1.111       .  S
C1578      H1583   1.109       .  S
C1578      H1584   1.111       .  S
C1585      C1586   1.403       .  A
C1585      C1590   1.402       .  A
C1585      H1592   1.084       .  S
C1586      C1587   1.416       .  A
C1587      C1588   1.403       .  A
C1587      C1594   1.508       .  S
C1588      C1589   1.404       .  A
C1588      H1593   1.084       .  S
C1589      C1590   1.416       .  A
C1590      C1591   1.508       .  S
C1591      H1595   1.111       .  S
C1591      H1596   1.111       .  S
C1591      H1597   1.109       .  S
C1594      H1598   1.109       .  S
C1594      H1599   1.111       .  S
C1594      H1600   1.111       .  S
C1601      C1602   1.405       .  A
C1601      C1606   1.402       .  A
C1601      H1608   1.084       .  S
C1602      C1603   1.419       .  A
C1603      C1604   1.405       .  A
C1603      C1610   1.509       .  S
C1604      C1605   1.406       .  A
C1604      H1609   1.084       .  S
C1605      C1606   1.419       .  A
C1606      C1607   1.509       .  S
C1607      H1611   1.111       .  S
C1607      H1612   1.110       .  S
C1607      H1613   1.110       .  S
C1610      H1614   1.110       .  S
C1610      H1615   1.110       .  S
C1610      H1616   1.111       .  S
C1617      C1622   1.404       .  A
C1617      H1624   1.085       .  S
C1618      C1619   1.415       .  A
C1619      C1620   1.406       .  A
C1619      C1626   1.507       .  S
C1620      C1621   1.404       .  A
C1620      H1625   1.084       .  S
C1622      C1623   1.507       .  S
C1623      H1627   1.111       .  S
C1623      H1628   1.109       .  S
C1623      H1629   1.110       .  S
C1626      H1630   1.110       .  S
C1626      H1631   1.109       .  S
C1626      H1632   1.111       .  S
C1633      C3330   1.401   1_455  A
C1633      C1638   1.404       .  A
C1633      H1640   1.084       .  S
C1634      C3329   1.402       .  A
C1634      C1635   1.413       .  A
C1635      C1636   1.402       .  A
C1635      C1642   1.509       .  S
C1636      C1637   1.405       .  A
C1636      H1641   1.085       .  S
C1637      C3334   1.417       .  A
C1638      C3333   1.418       .  A
C1638      C1639   1.508       .  S
C1639      H1643   1.111       .  S
C1639      H1644   1.110       .  S
C1639      H1645   1.111       .  S
C1642      H1646   1.107       .  S
C1642      H1647   1.111       .  S
C1642      H1648   1.110       .  S
C1649      C3346   1.405       .  A
C1649      C1654   1.404       .  A
C1649      H1656   1.084       .  S
C1650      C3345   1.406   1_455  A
C1650      C1651   1.418       .  A
C1651      C1652   1.403       .  A
C1651      C1658   1.509       .  S
C1652      C1653   1.406   1_455  A
C1652      H1657   1.084       .  S
C1653      C3350   1.418       .  A
C1654      C3349   1.418       .  A
C1654      C1655   1.508       .  S
C1655      H1659   1.111       .  S
C1655      H1660   1.110       .  S
C1655      H1661   1.110       .  S
C1658      H1662   1.110       .  S
C1658      H1663   1.110       .  S
C1658      H1664   1.111       .  S
C1665      C1666   1.405       .  A
C1665      C1670   1.403       .  A
C1665      H1672   1.084       .  S
C1666      C3363   1.418   1_455  A
C1667      C3362   1.417       .  A
C1667      C1668   1.403       .  A
C1667      C1674   1.509       .  S
C1668      C3365   1.404       .  A
C1668      H1673   1.084       .  S
C1669      C3364   1.404   1_455  A
C1669      C1670   1.416       .  A
C1670      C1671   1.508       .  S
C1671      H1675   1.111       .  S
C1671      H1676   1.110       .  S
C1671      H1677   1.110       .  S
C1674      H1678   1.109       .  S
C1674      H1679   1.111       .  S
C1674      H1680   1.111       .  S
C1681      C1682   1.399       .  A
C1681      C1686   1.405       .  A
C1681      H1688   1.084       .  S
C1682      C2531   1.411       .  A
C1683      C2530   1.414   1_565  A
C1683      C1684   1.404       .  A
C1683      C1690   1.508       .  S
C1684      C2533   1.404   1_565  A
C1684      H1689   1.084       .  S
C1685      C2532   1.407       .  A
C1685      C1686   1.420       .  A
C1686      C1687   1.508       .  S
C1687      H1691   1.111       .  S
C1687      H1693   1.111       .  S
C1690      H1694   1.109       .  S
C1690      H1696   1.111       .  S
O1697      V2553   1.902       .  S
O1698      V1705   1.902       .  S
O1699      V1705   1.899       .  S
O1699      C1709   1.264       .  A
O1700      V2553   1.898       .  S
O1700      C1710   1.266       .  A
O1701      V2554   1.899       .  S
O1702      V1706   1.895       .  S
O1703      V2554   1.900       .  S
O1703      C2556   1.264   1_655  A
O1704      V1706   1.899       .  S
O1704      C1707   1.264   1_655  A
V1705      O2545   1.902       .  S
V1705      O2548   1.900   1_545  S
V1706      O2549   1.897   1_545  S
V1706      O2551   1.900       .  S
C1707      C2533   1.479       .  S
C1708      O2551   1.264   1_455  A
C1708      C2723   1.465       .  S
C1709      C2517   1.482       .  S
C1710      C2501   1.487       .  S
O1711      V1719   1.895       .  S
O1712      V1719   1.895       .  S
O1713      V1719   1.894       .  S
O1713      C1723   1.263       .  A
O1714      V1719   1.894       .  S
O1714      C1724   1.264       .  A
O1715      V1720   1.896       .  S
O1716      V1720   1.898       .  S
O1717      V1720   1.902       .  S
O1717      C1722   1.265   1_655  A
O1718      V1720   1.903       .  S
O1718      C1721   1.265       .  A
C1721      C2485   1.479       .  S
C1722      C1891   1.464       .  S
C1723      C2498   1.487       .  S
C1724      C2514   1.481       .  S
O1725      V2581   1.899       .  S
O1725      C2583   1.265       .  A
O1726      V1733   1.899       .  S
O1726      C1736   1.263       .  A
O1727      V1733   1.898       .  S
O1727      C1737   1.264       .  A
O1728      V2581   1.899   1_545  S
O1728      C1738   1.266       .  A
O1729      V2582   1.898   1_545  S
O1729      C1738   1.263       .  A
O1730      V1734   1.899       .  S
O1730      C1737   1.264       .  A
O1731      V2582   1.897       .  S
O1731      C2584   1.264       .  A
O1732      V1734   1.901       .  S
O1732      C1735   1.264       .  A
V1733      O2573   1.897       .  S
V1733      O2576   1.898       .  S
V1733      V1734   2.087       .  T
V1734      O2577   1.898       .  S
V1734      O2579   1.898       .  S
C1735      O2573   1.263       .  A
C1735      C3314   1.470       .  S
C1736      O2579   1.264       .  A
C1736      C1903   1.464       .  S
C1737      C2437   1.479       .  S
C1738      C2450   1.490       .  S
O1739      V1747   1.901       .  S
O1739      C1749   1.264       .  A
O1740      V1747   1.903       .  S
O1740      C1750   1.264       .  A
O1741      V1747   1.897       .  S
O1741      C1751   1.263       .  A
O1742      V1747   1.899       .  S
O1742      C1752   1.264       .  A
O1743      V1748   1.898       .  S
O1743      C1752   1.265       .  A
O1744      V1748   1.900       .  S
O1744      C1751   1.266       .  A
O1745      V1748   1.895       .  S
O1745      C1750   1.263       .  A
O1746      V1748   1.898       .  S
O1746      C1749   1.264       .  A
V1747      V1748   2.085       .  T
C1749      C2418   1.480       .  S
C1750      C1917   1.465       .  S
C1751      C2453   1.490       .  S
C1752      C2434   1.480       .  S
O1753      V1761   1.901       .  S
O1753      C1763   1.264       .  A
O1755      C1765   1.263       .  A
O1756      V1761   1.894   1_655  S
O1756      C1766   1.263       .  A
O1757      V1762   1.898       .  S
O1757      C2614   1.265       .  A
O1758      C2613   1.265       .  A
O1759      V1762   1.896       .  S
O1759      C2612   1.262       .  A
V1761      V2610   2.086   1_545  T
V1762      V2609   2.087       .  T
C1763      C2530   1.476       .  S
C1764      O2607   1.263   1_545  A
C1764      C2670   1.464       .  S
C1765      O2606   1.264   1_545  A
C1765      C2402   1.482       .  S
C1766      O2605   1.265   1_545  A
C1766      C2389   1.486       .  S
O1767      V1775   1.899       .  S
O1767      C1777   1.264   1_455  A
O1769      C1779   1.265       .  A
O1770      V1775   1.894   1_655  S
O1770      C1780   1.262       .  A
O1771      V1776   1.897   1_655  S
O1771      C1780   1.265       .  A
O1772      C1779   1.263       .  A
O1773      V1776   1.899       .  S
O1773      C1778   1.263       .  A
V1775      V1776   2.086       .  T
C1777      C2482   1.473       .  S
C1778      C1836   1.464       .  S
C1779      C2370   1.482       .  S
C1780      C2354   1.481       .  S
O1781      V1789   1.901       .  S
O1781      C1791   1.264   1_545  A
O1782      V1789   1.901       .  S
O1782      C1792   1.264       .  A
O1783      V1789   1.896       .  S
O1783      C1793   1.265       .  A
O1784      V1789   1.898       .  S
O1784      C1794   1.265   1_545  A
O1785      V1790   1.896       .  S
O1785      C2642   1.263       .  A
O1786      V1790   1.897       .  S
O1786      C2641   1.263       .  A
O1787      V1790   1.896       .  S
O1787      C2640   1.263       .  A
O1788      V1790   1.895       .  S
O1788      C2639   1.263       .  A
V1789      V2638   2.086   1_545  T
V1790      V2637   2.086       .  T
C1791      O2636   1.263       .  A
C1791      C2469   1.473       .  S
C1792      O2635   1.264   1_545  A
C1792      C2698   1.465       .  S
C1793      O2634   1.263   1_545  A
C1793      C2386   1.485       .  S
C1794      O2633   1.262       .  A
C1794      C2405   1.482       .  S
O1795      V1803   1.900       .  S
O1795      C1805   1.264       .  A
O1796      V1803   1.903       .  S
O1796      C1806   1.264       .  A
O1797      V1803   1.895       .  S
O1797      C1807   1.264       .  A
O1798      V1803   1.897       .  S
O1798      C1808   1.264       .  A
O1799      V1804   1.895       .  S
O1799      C1808   1.264       .  A
O1800      V1804   1.896       .  S
O1800      C1807   1.263       .  A
O1801      V1804   1.898       .  S
O1801      C1806   1.264       .  A
O1802      V1804   1.898       .  S
O1802      C1805   1.264       .  A
V1803      V1804   2.086       .  T
C1805      C2421   1.477       .  S
C1806      C1863   1.466       .  S
C1807      C2357   1.482       .  S
C1808      C2373   1.482       .  S
O1809      V1817   1.903       .  S
O1809      C2667   1.265       .  A
O1810      C2668   1.265   1_545  A
O1811      V1817   1.895       .  S
O1812      C2670   1.263       .  A
O1814      V1818   1.900       .  S
O1814      C1821   1.264       .  A
O1815      V1818   1.897       .  S
O1815      C1820   1.263       .  A
O1816      C1819   1.263       .  A
C1819      O2657   1.265       .  A
C1819      C2338   1.478       .  S
C1820      O2658   1.266       .  A
C1820      C2322   1.482       .  S
C1821      C1988   1.464       .  S
C1822      O2660   1.263       .  A
C1822      C2612   1.462       .  S
O1823      V1831   1.898       .  S
O1823      C1833   1.265       .  A
O1824      C1834   1.265       .  A
O1825      V1831   1.894       .  S
O1826      C1836   1.264       .  A
O1828      V1832   1.901       .  S
O1828      C1835   1.264       .  A
O1829      V1832   1.896   1_655  S
O1829      C1834   1.263       .  A
O1830      C1833   1.263       .  A
C1833      C2306   1.482       .  S
C1834      C2290   1.487       .  S
C1835      C2002   1.464       .  S
O1837      V1845   1.899       .  S
O1837      C2695   1.264       .  A
O1838      V1845   1.900       .  S
O1838      C2696   1.264       .  A
O1839      V1845   1.902       .  S
O1839      C2697   1.264       .  A
O1840      V1845   1.902       .  S
O1840      C2698   1.264       .  A
O1841      V1846   1.898       .  S
O1841      C1850   1.264       .  A
O1842      V1846   1.897       .  S
O1842      C1849   1.263       .  A
O1843      V1846   1.902       .  S
O1843      C1848   1.265       .  A
O1844      V1846   1.902       .  S
O1844      C1847   1.265       .  A
V1845      V2694   2.088   1_545  T
V1846      V2693   2.087       .  T
C1847      O2685   1.263       .  A
C1847      C2325   1.482       .  S
C1848      O2686   1.264       .  A
C1848      C2341   1.479       .  S
C1849      O2687   1.264       .  A
C1849      C2016   1.464       .  S
C1850      O2688   1.264       .  A
C1850      C2640   1.465       .  S
O1851      V1859   1.895       .  S
O1851      C1861   1.263       .  A
O1852      V1859   1.895       .  S
O1852      C1862   1.263       .  A
O1853      V1859   1.904       .  S
O1853      C1863   1.265       .  A
O1854      V1859   1.902       .  S
O1854      C1864   1.264       .  A
O1855      V1860   1.895       .  S
O1855      C1864   1.262       .  A
O1856      V1860   1.896       .  S
O1856      C1863   1.263       .  A
O1857      V1860   1.898       .  S
O1857      C1862   1.265       .  A
O1858      V1860   1.897       .  S
O1858      C1861   1.265       .  A
V1859      V1860   2.087       .  T
C1861      C2309   1.481       .  S
C1862      C2293   1.488       .  S
C1864      C2030   1.463       .  S
O1865      V2721   1.899       .  S
O1865      C2723   1.263   1_655  A
O1866      V1873   1.895   1_556  S
O1866      C1876   1.263   1_655  A
O1867      V1873   1.901       .  S
O1867      C1877   1.265   1_655  A
O1868      V2721   1.900       .  S
O1868      C1878   1.267   1_655  A
O1869      V2722   1.899       .  S
O1870      V1874   1.899       .  S
O1871      V2722   1.902   1_556  S
O1872      V1874   1.905       .  S
V1873      O2713   1.896       .  S
V1873      O2716   1.902       .  S
V1874      O2717   1.900       .  S
V1874      O2719   1.903   1_554  S
C1875      O2713   1.262   1_455  A
C1875      C2556   1.465       .  S
C1876      C2780   1.466       .  S
C1877      C2258   1.480       .  S
C1878      C2277   1.493       .  S
O1879      V1887   1.902       .  S
O1880      V1887   1.901       .  S
O1881      V1887   1.895       .  S
O1882      V1887   1.896   1_556  S
O1883      V1888   1.900   1_556  S
O1883      C1892   1.264   1_655  A
O1884      V1888   1.900       .  S
O1884      C1891   1.263   1_655  A
O1885      V1888   1.896       .  S
O1885      C1890   1.264   1_655  A
O1886      V1888   1.895       .  S
O1886      C1889   1.263   1_655  A
C1889      C2274   1.493       .  S
C1890      C2261   1.480       .  S
C1892      C1946   1.466       .  S
O1893      V1901   1.896       .  S
O1893      C1903   1.263       .  A
O1894      V2749   1.894   1_556  S
O1894      C2752   1.262       .  A
O1895      V2749   1.898   1_545  S
O1895      C1905   1.264       .  A
O1896      V1901   1.898       .  S
O1896      C1906   1.265       .  A
O1897      V1902   1.898       .  S
O1897      C1906   1.264       .  A
O1898      V2750   1.899   1_545  S
O1898      C1905   1.265       .  A
O1899      V1902   1.901   1_556  S
O1899      C1904   1.264       .  A
O1900      V2750   1.903       .  S
O1900      C2751   1.265       .  A
V1901      O2742   1.895   1_554  S
V1901      O2743   1.898       .  S
V1901      V1902   2.087       .  T
V1902      O2746   1.899       .  S
V1902      O2748   1.901       .  S
C1903      O2748   1.264       .  A
C1904      O2742   1.263       .  A
C1904      C2808   1.463       .  S
C1905      C2245   1.481       .  S
C1906      C2226   1.485       .  S
O1907      V1915   1.895       .  S
O1907      C1917   1.263       .  A
O1908      V1915   1.894   1_556  S
O1908      C1918   1.262       .  A
O1909      V1915   1.897       .  S
O1909      C1919   1.263       .  A
O1910      V1915   1.897       .  S
O1910      C1920   1.265       .  A
O1911      V1916   1.900       .  S
O1911      C1920   1.264       .  A
O1912      V1916   1.899       .  S
O1912      C1919   1.265       .  A
O1913      V1916   1.903   1_556  S
O1913      C1918   1.265       .  A
O1914      V1916   1.903       .  S
O1914      C1917   1.264       .  A
V1915      V1916   2.087       .  T
C1918      C1974   1.464       .  S
C1919      C2229   1.487       .  S
C1920      C2242   1.480       .  S
O1921      V2777   1.896       .  S
O1921      C2779   1.262   1_655  A
O1922      V1929   1.898       .  S
O1922      C1932   1.263   1_655  A
O1923      V1929   1.898       .  S
O1923      C1933   1.264   1_655  A
O1924      V2777   1.893       .  S
O1924      C1934   1.263   1_655  A
O1925      V2778   1.897       .  S
O1926      V1930   1.892       .  S
O1927      V2778   1.902       .  S
O1928      V1930   1.901       .  S
V1929      O2769   1.897   1_545  S
V1929      O2772   1.895   1_545  S
V1930      O2773   1.895   1_545  S
V1930      O2775   1.903       .  S
C1931      O2769   1.263   1_455  A
C1931      C2210   1.471   1_455  S
C1932      C2724   1.465       .  S
C1933      C2194   1.488       .  S
C1934      C2178   1.481       .  S
O1935      V1943   1.896       .  S
O1935      C1945   1.263   1_655  A
O1936      V1943   1.896       .  S
O1936      C1946   1.263   1_655  A
O1937      V1943   1.894       .  S
O1937      C1947   1.265   1_655  A
O1938      V1943   1.898       .  S
O1938      C1948   1.266   1_655  A
O1939      V1944   1.896       .  S
O1940      V1944   1.899       .  S
O1941      V1944   1.900       .  S
O1942      V1944   1.901       .  S
C1945      C2162   1.479       .  S
C1947      C2181   1.482       .  S
C1948      C2197   1.488       .  S
O1949      V1957   1.899       .  S
O1949      C1959   1.264       .  A
O1950      V2805   1.902       .  S
O1950      C1960   1.264       .  A
O1951      V2805   1.897   1_545  S
O1951      C1961   1.263       .  A
O1952      V1957   1.898       .  S
O1952      C1962   1.263       .  A
O1953      V1958   1.901       .  S
O1953      C1962   1.266       .  A
O1954      V2806   1.899   1_545  S
O1954      C1961   1.265       .  A
O1955      V1958   1.896       .  S
O1955      C2808   1.263       .  A
O1956      V2806   1.898       .  S
O1956      C2807   1.263       .  A
V1957      O2798   1.900       .  S
V1957      O2799   1.898       .  S
V1957      V1958   2.085       .  T
V1958      O2802   1.898       .  S
V1958      O2804   1.897       .  S
C1959      O2804   1.263       .  A
C1959      C2146   1.476       .  S
C1960      O2803   1.263       .  A
C1960      C2752   1.464       .  S
C1961      C2130   1.482       .  S
C1962      C2114   1.493       .  S
O1963      V1971   1.899       .  S
O1963      C1973   1.265       .  A
O1964      V1971   1.901       .  S
O1964      C1974   1.264       .  A
O1965      V1971   1.900       .  S
O1965      C1975   1.266       .  A
O1966      V1971   1.899       .  S
O1966      C1976   1.265       .  A
O1967      V1972   1.898       .  S
O1967      C1976   1.263       .  A
O1968      V1972   1.897       .  S
O1968      C1975   1.263       .  A
O1969      V1972   1.896       .  S
O1969      C1974   1.263       .  A
O1970      V1972   1.898       .  S
O1970      C1973   1.264       .  A
V1971      V1972   2.085       .  T
C1973      C2098   1.485       .  S
C1975      C2117   1.492       .  S
C1976      C2133   1.483       .  S
O1977      V1985   1.898       .  S
O1977      C1987   1.264       .  A
O1979      C1989   1.264       .  A
O1980      V1985   1.897       .  S
O1980      C1990   1.264       .  A
O1981      V1986   1.896       .  S
O1981      C2838   1.263   1_545  A
O1982      C2837   1.265   1_545  A
O1983      V1986   1.897       .  S
O1983      C2836   1.263   1_545  A
V1985      V2834   2.086       .  T
V1986      V2833   2.086   1_545  T
C1987      C2213   1.486       .  S
C1988      O2831   1.263       .  A
C1989      O2830   1.264       .  A
C1989      C2082   1.490       .  S
C1990      O2829   1.263       .  A
C1990      C2066   1.476       .  S
O1992      V1999   1.897       .  S
O1992      C2002   1.263       .  A
O1993      V1999   1.898   1_655  S
O1993      C2003   1.264       .  A
O1994      C2004   1.264       .  A
O1995      C2004   1.264       .  A
O1996      V2000   1.901   1_655  S
O1996      C2003   1.264       .  A
O1998      V2000   1.900       .  S
O1998      C2001   1.264       .  A
V1999      V2000   2.087       .  T
C2001      C2165   1.480       .  S
C2003      C2037   1.481       .  S
C2004      C2050   1.477       .  S
O2005      V2013   1.896       .  S
O2005      C2015   1.263       .  A
O2006      V2013   1.898       .  S
O2006      C2016   1.264       .  A
O2007      V2013   1.895       .  S
O2007      C2017   1.263       .  A
O2008      V2013   1.894       .  S
O2008      C2018   1.265       .  A
O2009      V2014   1.899       .  S
O2009      C2866   1.264       .  A
O2010      V2014   1.897       .  S
O2010      C2865   1.265   1_545  A
O2011      V2014   1.902       .  S
O2011      C2864   1.264       .  A
O2012      V2014   1.901       .  S
O2012      C2863   1.264   1_545  A
V2013      V2862   2.085       .  T
V2014      V2861   2.086   1_545  T
C2015      O2860   1.265       .  A
C2015      C2149   1.477       .  S
C2016      O2859   1.264       .  A
C2017      O2858   1.264       .  A
C2017      C2069   1.477       .  S
C2018      O2857   1.264       .  A
C2018      C2085   1.490       .  S
O2019      V2027   1.899       .  S
O2019      C2029   1.263       .  A
O2020      V2027   1.899       .  S
O2020      C2030   1.263       .  A
O2021      V2027   1.904       .  S
O2021      C2031   1.266       .  A
O2022      V2027   1.900       .  S
O2022      C2032   1.264       .  A
O2023      V2028   1.900       .  S
O2023      C2032   1.265       .  A
O2024      V2028   1.896       .  S
O2024      C2031   1.263       .  A
O2025      V2028   1.897       .  S
O2025      C2030   1.264       .  A
O2026      V2028   1.899       .  S
O2026      C2029   1.264       .  A
V2027      V2028   2.086       .  T
C2029      C2101   1.472       .  S
C2031      C2053   1.480       .  S
C2032      C2034   1.480       .  S
C2033      C2034   1.404       .  A
C2033      C2038   1.405       .  A
C2033      H2040   1.084       .  S
C2034      C2035   1.415       .  A
C2035      C2036   1.404       .  A
C2035      C2042   1.508       .  S
C2036      C2037   1.404       .  A
C2036      H2041   1.084       .  S
C2037      C2038   1.415       .  A
C2038      C2039   1.508       .  S
C2039      H2043   1.111       .  S
C2039      H2044   1.111       .  S
C2039      H2045   1.109       .  S
C2042      H2046   1.109       .  S
C2042      H2047   1.111       .  S
C2042      H2048   1.111       .  S
C2049      C2050   1.403       .  A
C2049      C2054   1.404       .  A
C2049      H2056   1.084       .  S
C2050      C2051   1.417       .  A
C2051      C2052   1.404       .  A
C2051      C2058   1.509       .  S
C2052      C2053   1.403       .  A
C2052      H2057   1.085       .  S
C2053      C2054   1.416       .  A
C2054      C2055   1.508       .  S
C2055      H2059   1.111       .  S
C2055      H2060   1.109       .  S
C2055      H2061   1.111       .  S
C2058      H2062   1.106       .  S
C2058      H2063   1.110       .  S
C2058      H2064   1.111       .  S
C2065      C2066   1.403       .  A
C2065      C2070   1.402       .  A
C2065      H2072   1.084       .  S
C2066      C2915   1.415       .  A
C2067      C2914   1.417   1_545  A
C2067      C2068   1.403       .  A
C2067      C2074   1.508       .  S
C2068      C2917   1.404   1_545  A
C2068      H2073   1.084       .  S
C2069      C2916   1.403       .  A
C2069      C2070   1.415       .  A
C2070      C2071   1.508       .  S
C2071      H2075   1.111       .  S
C2071      H2076   1.109       .  S
C2071      H2077   1.111       .  S
C2074      H2078   1.111       .  S
C2074      H2079   1.109       .  S
C2074      H2080   1.111       .  S
C2081      C2930   1.405   1_545  A
C2081      C2086   1.404       .  A
C2081      H2088   1.084       .  S
C2082      C2929   1.406       .  A
C2082      C2083   1.418       .  A
C2083      C2084   1.403       .  A
C2083      C2090   1.509       .  S
C2084      C2085   1.407       .  A
C2084      H2089   1.083       .  S
C2085      C2934   1.418       .  A
C2086      C2933   1.419       .  A
C2086      C2087   1.508       .  S
C2087      H2091   1.111       .  S
C2087      H2092   1.110       .  S
C2087      H2093   1.110       .  S
C2090      H2094   1.110       .  S
C2090      H2095   1.110       .  S
C2090      H2096   1.111       .  S
C2097      C2098   1.406       .  A
C2097      C2102   1.403       .  A
C2097      H2104   1.084       .  S
C2098      C2099   1.419       .  A
C2099      C2100   1.405       .  A
C2099      C2106   1.508       .  S
C2100      C2101   1.400       .  A
C2100      H2105   1.084       .  S
C2101      C2102   1.410       .  A
C2102      C2103   1.508       .  S
C2103      H2107   1.111       .  S
C2103      H2108   1.110       .  S
C2103      H2109   1.111       .  S
C2106      H2110   1.110       .  S
C2106      H2111   1.110       .  S
C2106      H2112   1.111       .  S
C2113      C2114   1.406       .  A
C2113      C2118   1.404       .  A
C2113      H2120   1.084       .  S
C2114      C2115   1.420       .  A
C2115      C2116   1.404       .  A
C2115      C2122   1.509       .  S
C2116      C2117   1.406       .  A
C2116      H2121   1.084       .  S
C2117      C2118   1.419       .  A
C2118      C2119   1.509       .  S
C2119      H2123   1.111       .  S
C2119      H2124   1.110       .  S
C2119      H2125   1.110       .  S
C2122      H2126   1.110       .  S
C2122      H2127   1.110       .  S
C2122      H2128   1.111       .  S
C2129      C2130   1.404       .  A
C2129      C2134   1.404       .  A
C2129      H2136   1.084       .  S
C2130      C2131   1.416       .  A
C2131      C2132   1.403       .  A
C2131      C2138   1.508       .  S
C2132      C2133   1.404       .  A
C2132      H2137   1.084       .  S
C2133      C2134   1.417       .  A
C2134      C2135   1.508       .  S
C2135      H2139   1.111       .  S
C2135      H2140   1.111       .  S
C2135      H2141   1.109       .  S
C2138      H2142   1.109       .  S
C2138      H2143   1.111       .  S
C2138      H2144   1.111       .  S
C2145      C2146   1.402       .  A
C2145      C2150   1.403       .  A
C2145      H2152   1.084       .  S
C2146      C2995   1.415       .  A
C2147      C2994   1.417   1_545  A
C2147      C2148   1.404       .  A
C2147      C2154   1.508       .  S
C2148      C2997   1.402   1_545  A
C2148      H2153   1.084       .  S
C2149      C2996   1.403       .  A
C2149      C2150   1.415       .  A
C2150      C2151   1.508       .  S
C2151      H2155   1.111       .  S
C2151      H2156   1.109       .  S
C2151      H3005   1.111       .  S
C2154      H3006   1.109       .  S
C2154      H2159   1.111       .  S
C2154      H2160   1.111       .  S
H2157      C2999   1.111       .  S
H2158      C3002   1.109       .  S
C2161      C2166   1.403       .  A
C2161      H2168   1.084       .  S
C2162      C2163   1.414       .  A
C2163      C2164   1.404       .  A
C2163      C2170   1.507       .  S
C2164      C2165   1.404       .  A
C2164      H2169   1.084       .  S
C2166      C2167   1.508       .  S
C2167      H2171   1.111       .  S
C2167      H2172   1.111       .  S
C2167      H2173   1.110       .  S
C2170      H2174   1.110       .  S
C2170      H2175   1.109       .  S
C2170      H2176   1.111       .  S
C2177      C2182   1.404       .  A
C2177      H2184   1.084       .  S
C2178      C2179   1.416   1_455  A
C2179      C2180   1.400       .  A
C2179      C2186   1.509       .  S
C2180      C2181   1.404   1_655  A
C2180      H2185   1.084       .  S
C2182      C2183   1.508       .  S
C2183      H2187   1.111       .  S
C2183      H2188   1.110       .  S
C2183      H2189   1.110       .  S
C2186      H2190   1.110       .  S
C2186      H2191   1.109       .  S
C2186      H2192   1.111       .  S
C2193      C2198   1.402       .  A
C2193      H2200   1.084       .  S
C2194      C2195   1.418   1_455  A
C2195      C2196   1.403       .  A
C2195      C2202   1.509       .  S
C2196      C2197   1.405   1_655  A
C2196      H2201   1.084       .  S
C2198      C2199   1.509       .  S
C2199      H2203   1.111       .  S
C2199      H2205   1.108       .  S
C2202      H2206   1.110       .  S
C2202      H2208   1.111       .  S
C2209      C2214   1.405       .  A
C2209      H2216   1.085       .  S
C2210      C2211   1.413   1_665  A
C2211      C2212   1.402       .  A
C2211      C2218   1.509       .  S
C2212      C3061   1.406   1_445  A
C2212      H2217   1.085       .  S
C2213      C3060   1.407   1_655  A
C2214      C2215   1.508       .  S
C2215      H2219   1.111       .  S
C2215      H2220   1.109       .  S
C2218      H2223   1.107       .  S
C2218      H2224   1.111       .  S
C2225      C2226   1.404       .  A
C2225      C2230   1.403       .  A
C2225      H2232   1.084       .  S
C2226      C2227   1.417       .  A
C2227      C2228   1.404       .  A
C2227      C2234   1.509       .  S
C2228      C2229   1.406       .  A
C2228      H2233   1.084       .  S
C2229      C2230   1.418       .  A
C2230      C2231   1.508       .  S
C2231      H2235   1.111       .  S
C2231      H2236   1.110       .  S
C2231      H2237   1.110       .  S
C2234      H2238   1.111   1_554  S
C2234      H2239   1.109       .  S
C2234      H2240   1.111   1_554  S
C2241      C2242   1.404       .  A
C2241      C2246   1.403       .  A
C2241      H2248   1.084       .  S
C2242      C2243   1.415       .  A
C2243      C2244   1.405       .  A
C2243      C2250   1.508       .  S
C2244      C2245   1.405       .  A
C2244      H2249   1.084       .  S
C2245      C2246   1.416       .  A
C2246      C2247   1.508   1_554  S
C2247      H2251   1.111       .  S
C2247      H2252   1.111       .  S
C2247      H2253   1.109   1_556  S
C2250      H2254   1.109       .  S
C2250      H2255   1.111       .  S
C2250      H2256   1.111       .  S
C2257      C2262   1.404       .  A
C2257      H2264   1.084       .  S
C2258      C2259   1.415   1_455  A
C2259      C2260   1.403       .  A
C2259      C2266   1.508       .  S
C2260      C2261   1.404   1_655  A
C2260      H2265   1.084       .  S
C2262      C2263   1.508   1_554  S
C2263      H2267   1.111       .  S
C2263      H2268   1.111       .  S
C2263      H2269   1.109   1_556  S
C2266      H2270   1.109       .  S
C2266      H2271   1.110       .  S
C2266      H2272   1.111       .  S
C2273      C2278   1.405       .  A
C2273      H2280   1.084       .  S
C2274      C2275   1.420   1_455  A
C2275      C2276   1.404       .  A
C2275      C2282   1.509       .  S
C2276      C2277   1.406   1_655  A
C2276      H2281   1.083       .  S
C2278      C2279   1.508       .  S
C2279      H2283   1.111       .  S
C2279      H2284   1.110       .  S
C2279      H2285   1.111       .  S
C2282      H2286   1.110       .  S
C2282      H2287   1.110       .  S
C2282      H2288   1.111       .  S
C2289      C2290   1.405       .  A
C2289      C2294   1.402       .  A
C2289      H2296   1.084       .  S
C2290      C2291   1.418       .  A
C2291      C2292   1.403       .  A
C2291      C2298   1.509       .  S
C2292      C2293   1.406       .  A
C2292      H2297   1.084       .  S
C2293      C2294   1.419       .  A
C2294      C2295   1.509       .  S
C2295      H2299   1.111       .  S
C2295      H2300   1.110       .  S
C2295      H2301   1.110       .  S
C2298      H2302   1.110       .  S
C2298      H2303   1.110       .  S
C2298      H2304   1.111       .  S
C2305      C2306   1.404       .  A
C2305      C2310   1.403       .  A
C2305      H2312   1.084       .  S
C2306      C2307   1.417       .  A
C2307      C2308   1.402       .  A
C2307      C2314   1.508       .  S
C2308      C2309   1.403       .  A
C2308      H2313   1.084       .  S
C2309      C2310   1.417       .  A
C2310      C2311   1.509       .  S
C2311      H2315   1.111       .  S
C2311      H2316   1.109       .  S
C2311      H2317   1.111       .  S
C2314      H2318   1.109       .  S
C2314      H2319   1.110       .  S
C2314      H2320   1.111       .  S
C2321      C3170   1.404   1_545  A
C2321      C2326   1.404       .  A
C2321      H2328   1.084       .  S
C2322      C3169   1.404       .  A
C2322      C2323   1.417       .  A
C2323      C2324   1.404       .  A
C2323      C2330   1.508       .  S
C2324      C2325   1.404       .  A
C2324      H2329   1.084       .  S
C2325      C3174   1.416       .  A
C2326      C3173   1.415       .  A
C2326      C2327   1.508       .  S
C2327      H2331   1.110       .  S
C2327      H2332   1.111       .  S
C2327      H2333   1.109       .  S
C2330      H2334   1.109       .  S
C2330      H2335   1.111       .  S
C2330      H2336   1.110       .  S
C2337      C3186   1.404       .  A
C2337      C2342   1.405       .  A
C2337      H2344   1.084       .  S
C2338      C3185   1.403       .  A
C2338      C2339   1.415       .  A
C2339      C2340   1.405       .  A
C2339      C2346   1.508       .  S
C2340      C2341   1.404       .  A
C2340      H2345   1.084       .  S
C2341      C3190   1.414       .  A
C2342      C3189   1.415       .  A
C2342      C2343   1.508       .  S
C2343      H2347   1.111       .  S
C2343      H2348   1.111       .  S
C2343      H2349   1.109       .  S
C2346      H2350   1.109       .  S
C2346      H2351   1.111       .  S
C2346      H2352   1.111       .  S
C2353      C2354   1.404       .  A
C2353      C2358   1.402       .  A
C2353      H2360   1.084       .  S
C2354      C2355   1.417       .  A
C2355      C2356   1.402       .  A
C2355      C2362   1.509       .  S
C2356      C2357   1.404       .  A
C2356      H2361   1.084       .  S
C2357      C2358   1.416       .  A
C2358      C2359   1.508       .  S
C2359      H2363   1.111       .  S
C2359      H2364   1.111       .  S
C2359      H2365   1.109       .  S
C2362      H2366   1.110       .  S
C2362      H2367   1.111       .  S
C2362      H2368   1.111       .  S
C2369      C2370   1.404       .  A
C2369      C2374   1.403       .  A
C2369      H2376   1.084       .  S
C2370      C2371   1.416       .  A
C2371      C2372   1.402       .  A
C2371      C2378   1.508       .  S
C2372      C2373   1.404       .  A
C2372      H2377   1.084       .  S
C2373      C2374   1.417       .  A
C2374      C2375   1.508       .  S
C2375      H2379   1.111       .  S
C2375      H2380   1.111       .  S
C2375      H2381   1.109       .  S
C2378      H2382   1.110       .  S
C2378      H2383   1.110       .  S
C2378      H2384   1.111       .  S
C2385      C2386   1.405       .  A
C2385      C2390   1.403       .  A
C2385      H2392   1.084       .  S
C2386      C3235   1.417   1_545  A
C2387      C3234   1.416       .  A
C2387      C2388   1.403       .  A
C2387      C2394   1.508       .  S
C2388      C3237   1.404       .  A
C2388      H2393   1.084       .  S
C2389      C3236   1.405   1_545  A
C2389      C2390   1.418       .  A
C2390      C2391   1.509       .  S
C2391      H2395   1.111       .  S
C2391      H2396   1.110       .  S
C2391      H2397   1.110       .  S
C2394      H2398   1.109       .  S
C2394      H2399   1.111       .  S
C2394      H2400   1.110       .  S
C2401      C3250   1.402       .  A
C2401      C2406   1.401       .  A
C2401      H2408   1.085       .  S
C2402      C3249   1.404   1_545  A
C2402      C2403   1.417       .  A
C2403      C2404   1.402       .  A
C2403      C2410   1.508       .  S
C2404      C2405   1.405   1_545  A
C2404      H2409   1.085       .  S
C2405      C3254   1.417       .  A
C2406      C3253   1.415       .  A
C2406      C2407   1.507       .  S
C2407      H2411   1.111       .  S
C2407      H2412   1.109       .  S
C2407      H3261   1.109       .  S
C2410      H3262   1.111       .  S
C2410      H2415   1.109       .  S
C2410      H2416   1.111       .  S
H2413      C3255   1.107       .  S
H2414      C3258   1.111       .  S
C2417      C2418   1.404       .  A
C2417      C2422   1.404       .  A
C2417      H2424   1.084       .  S
C2418      C2419   1.415       .  A
C2419      C2420   1.404       .  A
C2419      C2426   1.508       .  S
C2420      C2421   1.403       .  A
C2420      H2425   1.084       .  S
C2421      C2422   1.413       .  A
C2422      C2423   1.508       .  S
C2423      H2427   1.111       .  S
C2423      H2428   1.111       .  S
C2423      H2429   1.109       .  S
C2426      H2430   1.111       .  S
C2426      H2431   1.109       .  S
C2426      H2432   1.111       .  S
C2433      C2434   1.404       .  A
C2433      C2438   1.403       .  A
C2433      H2440   1.084       .  S
C2434      C2435   1.416       .  A
C2435      C2436   1.404       .  A
C2435      C2442   1.508       .  S
C2436      C2437   1.404       .  A
C2436      H2441   1.084       .  S
C2437      C2438   1.415       .  A
C2438      C2439   1.508       .  S
C2439      H2443   1.111       .  S
C2439      H2444   1.109       .  S
C2439      H2445   1.111       .  S
C2442      H2446   1.111       .  S
C2442      H2447   1.109       .  S
C2442      H2448   1.111       .  S
C2449      C2450   1.405       .  A
C2449      C2454   1.403       .  A
C2449      H2456   1.084       .  S
C2450      C2451   1.419       .  A
C2451      C2452   1.404       .  A
C2451      C2458   1.508       .  S
C2452      C2453   1.406       .  A
C2452      H2457   1.084       .  S
C2453      C2454   1.419       .  A
C2454      C2455   1.509       .  S
C2455      H2459   1.111       .  S
C2455      H2460   1.110       .  S
C2455      H2461   1.110       .  S
C2458      H2462   1.110       .  S
C2458      H2463   1.109       .  S
C2458      H2464   1.111       .  S
C2465      C3314   1.397       .  A
C2465      C2470   1.403       .  A
C2465      H2472   1.085       .  S
C2466      C2583   1.486       .  S
C2466      C3313   1.406       .  A
C2466      C2467   1.419   1_565  A
C2467      C2468   1.405       .  A
C2467      C2474   1.507       .  S
C2468      C2469   1.400   1_545  A
C2468      H2473   1.085       .  S
C2469      C3318   1.410       .  A
C2470      C3317   1.422       .  A
C2470      C2471   1.508       .  S
C2471      H2475   1.111       .  S
C2471      H2476   1.108       .  S
C2471      H2477   1.110       .  S
C2474      H2478   1.109       .  S
C2474      H2479   1.110       .  S
C2474      H2480   1.111       .  S
C2481      C2486   1.403       .  A
C2481      H2488   1.084       .  S
C2482      C2483   1.415       .  A
C2483      C2484   1.403       .  A
C2483      C2490   1.509       .  S
C2484      C2485   1.403       .  A
C2484      H2489   1.084       .  S
C2486      C2487   1.509       .  S
C2487      H2491   1.111       .  S
C2487      H2492   1.109       .  S
C2487      H2493   1.111       .  S
C2490      H2494   1.107       .  S
C2490      H2495   1.111       .  S
C2490      H2496   1.110       .  S
C2497      C2502   1.404       .  A
C2497      H2504   1.084       .  S
C2498      C2499   1.418       .  A
C2499      C2500   1.403       .  A
C2499      C2506   1.509       .  S
C2500      C2501   1.405       .  A
C2500      H2505   1.084       .  S
C2502      C2503   1.509       .  S
C2503      H2507   1.111       .  S
C2503      H2508   1.110       .  S
C2503      H2509   1.110       .  S
C2506      H2510   1.110       .  S
C2506      H2511   1.111       .  S
C2506      H2512   1.111       .  S
C2513      C2514   1.404       .  A
C2513      C2518   1.402       .  A
C2513      H2520   1.084       .  S
C2515      C2516   1.402       .  A
C2515      C2522   1.509       .  S
C2516      H2521   1.084       .  S
C2517      C2518   1.416       .  A
C2518      C2519   1.508       .  S
C2519      H2523   1.111       .  S
C2519      H2524   1.109       .  S
C2519      H2525   1.111       .  S
C2522      H2526   1.110       .  S
C2522      H2527   1.111       .  S
C2522      H2528   1.111       .  S
C2529      C2530   1.402   1_655  A
C2529      C2534   1.404       .  A
C2529      H2536   1.084       .  S
C2531      C2532   1.404       .  A
C2531      C2538   1.508       .  S
C2532      H2537   1.084       .  S
C2533      C2534   1.416   1_455  A
C2534      C2535   1.508       .  S
C2535      H2539   1.111       .  S
C2535      H3388   1.109       .  S
C2535      H2541   1.111       .  S
C2538      H2542   1.110       .  S
C2538      H3391   1.111       .  S
C2538      H2544   1.111       .  S
H2540      C3383   1.109       .  S
H2543      C3386   1.111       .  S
O2546      V2553   1.903       .  S
O2547      V2553   1.900       .  S
O2547      C2557   1.264       .  A
O2548      C2558   1.265       .  A
O2550      V2554   1.896       .  S
O2552      V2554   1.900       .  S
O2552      C2555   1.264       .  A
C2555      C3381   1.480       .  S
C2557      C3365   1.483       .  S
C2558      C3349   1.487       .  S
O2559      V2567   1.899       .  S
O2560      V2567   1.900       .  S
O2561      V2567   1.900       .  S
O2561      C2571   1.264       .  A
O2562      V2567   1.899       .  S
O2562      C2572   1.265       .  A
O2563      V2568   1.895       .  S
O2564      V2568   1.896       .  S
O2565      V2568   1.902       .  S
O2565      C2570   1.264   1_655  A
O2566      V2568   1.899       .  S
O2566      C2569   1.265   1_655  A
C2569      C3333   1.483       .  S
C2570      C2739   1.466       .  S
C2571      C3346   1.487       .  S
C2572      C3362   1.485       .  S
O2574      V2581   1.901       .  S
O2574      C2584   1.264       .  A
O2575      V2581   1.899       .  S
O2575      C2585   1.264       .  A
O2576      C2586   1.266       .  A
O2577      C2586   1.263       .  A
O2578      V2582   1.897       .  S
O2578      C2585   1.263       .  A
O2580      V2582   1.900       .  S
O2580      C2583   1.264       .  A
V2581      V2582   2.086       .  T
C2584      C2751   1.464       .  S
C2585      C3285   1.479       .  S
C2586      C3298   1.489       .  S
O2587      V2595   1.898       .  S
O2587      C2597   1.263       .  A
O2588      V2595   1.899       .  S
O2588      C2598   1.264       .  A
O2589      V2595   1.894       .  S
O2589      C2599   1.263       .  A
O2590      V2595   1.898       .  S
O2590      C2600   1.263       .  A
O2591      V2596   1.898       .  S
O2591      C2600   1.265       .  A
O2592      V2596   1.901       .  S
O2592      C2599   1.266       .  A
O2593      V2596   1.896       .  S
O2593      C2598   1.263       .  A
O2594      V2596   1.899       .  S
O2594      C2597   1.264       .  A
V2595      V2596   2.086       .  T
C2597      C3266   1.474       .  S
C2598      C2765   1.463       .  S
C2599      C3301   1.490       .  S
C2600      C3282   1.479       .  S
O2601      V2609   1.901       .  S
O2601      C2611   1.264       .  A
O2603      C2613   1.262       .  A
O2604      V2609   1.894       .  S
O2604      C2614   1.263       .  A
O2605      V2610   1.897   1_655  S
O2607      V2610   1.897   1_655  S
C2611      C3378   1.477   1_655  S
C2613      C3250   1.478       .  S
C2614      C3237   1.478       .  S
O2615      V2623   1.898   1_655  S
O2615      C2625   1.264       .  A
O2617      C2627   1.265       .  A
O2618      V2623   1.895   1_655  S
O2618      C2628   1.263       .  A
O2619      V2624   1.899   1_655  S
O2619      C2628   1.265       .  A
O2620      C2627   1.263       .  A
O2621      V2624   1.898   1_655  S
O2621      C2626   1.263   1_655  A
V2623      V2624   2.087       .  T
C2625      C3330   1.472       .  S
C2626      C2684   1.462       .  S
C2627      C3218   1.484       .  S
C2628      C3202   1.481       .  S
O2629      V2637   1.905       .  S
O2629      C2639   1.267       .  A
O2630      V2637   1.904       .  S
O2630      C2640   1.265       .  A
O2631      V2637   1.895       .  S
O2631      C2641   1.264       .  A
O2632      V2637   1.897       .  S
O2632      C2642   1.264       .  A
O2633      V2638   1.892       .  S
O2634      V2638   1.895       .  S
O2635      V2638   1.898       .  S
O2636      V2638   1.899       .  S
C2639      C3317   1.490       .  S
C2641      C3234   1.480       .  S
C2642      C3253   1.479       .  S
O2643      V2651   1.897       .  S
O2643      C2653   1.263       .  A
O2644      V2651   1.896       .  S
O2644      C2654   1.263       .  A
O2645      V2651   1.897       .  S
O2645      C2655   1.265       .  A
O2646      V2651   1.897       .  S
O2646      C2656   1.264       .  A
O2647      V2652   1.894       .  S
O2647      C2656   1.264       .  A
O2648      V2652   1.897       .  S
O2648      C2655   1.263       .  A
O2649      V2652   1.901       .  S
O2649      C2654   1.264       .  A
O2650      V2652   1.901       .  S
O2650      C2653   1.265       .  A
V2651      V2652   2.086       .  T
C2653      C3269   1.483       .  S
C2654      C2711   1.464       .  S
C2655      C3205   1.480       .  S
C2656      C3221   1.484       .  S
O2657      V2665   1.902       .  S
O2659      V2665   1.894       .  S
O2662      V2666   1.900       .  S
O2662      C2669   1.264       .  A
O2663      V2666   1.896       .  S
O2663      C2668   1.263       .  A
O2664      C2667   1.264   1_565  A
C2667      C3186   1.479       .  S
C2668      C3170   1.479       .  S
C2669      C2836   1.464       .  S
O2671      V2679   1.898       .  S
O2671      C2681   1.265       .  A
O2672      C2682   1.265       .  A
O2673      V2679   1.891       .  S
O2674      C2684   1.263       .  A
O2676      V2680   1.900       .  S
O2676      C2683   1.264       .  A
O2677      V2680   1.895   1_655  S
O2677      C2682   1.263       .  A
O2678      C2681   1.264       .  A
C2681      C3154   1.479       .  S
C2682      C3138   1.484       .  S
C2683      C2850   1.462       .  S
O2685      V2693   1.898       .  S
O2686      V2693   1.897       .  S
O2687      V2693   1.900       .  S
O2688      V2693   1.901       .  S
O2689      V2694   1.897       .  S
O2689      C2698   1.263   1_565  A
O2690      V2694   1.895       .  S
O2690      C2697   1.263   1_565  A
O2691      V2694   1.900       .  S
O2691      C2696   1.265   1_565  A
O2692      V2694   1.900       .  S
O2692      C2695   1.265   1_565  A
C2695      C3173   1.479       .  S
C2696      C3189   1.478       .  S
C2697      C2864   1.464       .  S
O2699      V2707   1.896       .  S
O2699      C2709   1.264       .  A
O2700      V2707   1.898       .  S
O2700      C2710   1.263       .  A
O2701      V2707   1.899       .  S
O2701      C2711   1.264       .  A
O2702      V2707   1.898       .  S
O2702      C2712   1.263       .  A
O2703      V2708   1.898       .  S
O2703      C2712   1.264       .  A
O2704      V2708   1.898       .  S
O2704      C2711   1.263       .  A
O2705      V2708   1.898       .  S
O2705      C2710   1.265       .  A
O2706      V2708   1.900       .  S
O2706      C2709   1.264       .  A
V2707      V2708   2.088       .  T
C2709      C3157   1.478       .  S
C2710      C3141   1.484       .  S
C2712      C2878   1.463       .  S
O2714      V2721   1.899   1_556  S
O2714      C2724   1.264   1_655  A
O2715      V2721   1.901   1_565  S
O2715      C2725   1.264       .  A
O2716      C2726   1.266   1_655  A
O2718      V2722   1.897   1_565  S
O2720      V2722   1.902       .  S
C2725      C3106   1.481       .  S
C2726      C3125   1.484       .  S
O2727      V2735   1.901       .  S
O2728      V2735   1.898       .  S
O2729      V2735   1.899       .  S
O2730      V2735   1.898   1_556  S
O2731      V2736   1.902   1_556  S
O2731      C2740   1.265   1_655  A
O2732      V2736   1.903       .  S
O2732      C2739   1.265   1_655  A
O2733      V2736   1.897       .  S
O2733      C2738   1.264   1_655  A
O2734      V2736   1.897       .  S
O2734      C2737   1.263   1_655  A
C2737      C3122   1.483       .  S
C2738      C3109   1.481       .  S
C2740      C2794   1.465       .  S
O2741      V2749   1.894       .  S
O2741      C2751   1.262       .  A
O2743      C2753   1.264       .  A
O2744      V2749   1.899       .  S
O2744      C2754   1.265       .  A
O2745      V2750   1.898       .  S
O2745      C2754   1.264       .  A
O2746      C2753   1.265       .  A
O2747      V2750   1.904   1_556  S
O2747      C2752   1.265       .  A
V2749      V2750   2.087       .  T
C2753      C3093   1.488       .  S
C2754      C3074   1.483       .  S
O2755      V2763   1.896       .  S
O2755      C2765   1.263       .  A
O2756      V2763   1.897   1_556  S
O2756      C2766   1.263       .  A
O2757      V2763   1.898       .  S
O2757      C2767   1.264       .  A
O2758      V2763   1.897       .  S
O2758      C2768   1.265       .  A
O2759      V2764   1.899       .  S
O2759      C2768   1.264       .  A
O2760      V2764   1.899       .  S
O2760      C2767   1.265       .  A
O2761      V2764   1.900   1_556  S
O2761      C2766   1.264       .  A
O2762      V2764   1.899       .  S
O2762      C2765   1.264       .  A
V2763      V2764   2.087       .  T
C2766      C2822   1.464       .  S
C2767      C3077   1.483       .  S
C2768      C3090   1.487       .  S
O2770      V2777   1.896       .  S
O2770      C2780   1.263   1_655  A
O2771      V2777   1.897       .  S
O2771      C2781   1.263   1_655  A
O2772      C2782   1.263       .  A
O2774      V2778   1.895       .  S
O2776      V2778   1.900       .  S
C2779      C3058   1.470   1_455  S
C2781      C3042   1.488   1_455  S
C2782      C3026   1.487   1_655  S
O2783      V2791   1.898       .  S
O2783      C2793   1.263   1_655  A
O2784      V2791   1.898       .  S
O2784      C2794   1.263   1_655  A
O2785      V2791   1.898       .  S
O2785      C2795   1.266   1_655  A
O2786      V2791   1.901       .  S
O2786      C2796   1.266   1_655  A
O2787      V2792   1.895       .  S
O2788      V2792   1.897       .  S
O2789      V2792   1.900       .  S
O2790      V2792   1.900       .  S
C2793      C3010   1.475       .  S
C2795      C3029   1.487       .  S
C2796      C3045   1.487       .  S
O2797      V2805   1.899       .  S
O2797      C2807   1.265       .  A
O2798      C2808   1.264       .  A
O2799      C2809   1.264       .  A
O2800      V2805   1.897       .  S
O2800      C2810   1.263       .  A
O2801      V2806   1.901       .  S
O2801      C2810   1.265       .  A
O2802      C2809   1.265       .  A
O2803      V2806   1.895       .  S
V2805      V2806   2.087       .  T
C2807      C2994   1.479       .  S
C2809      C2978   1.482       .  S
C2810      C2962   1.481       .  S
O2811      V2819   1.901       .  S
O2811      C2821   1.265       .  A
O2812      V2819   1.902       .  S
O2812      C2822   1.264       .  A
O2813      V2819   1.901       .  S
O2813      C2823   1.265       .  A
O2814      V2819   1.900       .  S
O2814      C2824   1.265       .  A
O2815      V2820   1.898       .  S
O2815      C2824   1.264       .  A
O2816      V2820   1.896       .  S
O2816      C2823   1.263       .  A
O2817      V2820   1.896       .  S
O2817      C2822   1.263       .  A
O2818      V2820   1.898       .  S
O2818      C2821   1.264       .  A
V2819      V2820   2.087       .  T
C2821      C2946   1.480       .  S
C2823      C2965   1.481       .  S
C2824      C2981   1.482       .  S
O2825      V2833   1.900       .  S
O2825      C2835   1.264       .  A
O2827      C2837   1.263       .  A
O2828      V2833   1.897       .  S
O2828      C2838   1.265       .  A
O2829      V2834   1.895       .  S
O2831      V2834   1.897       .  S
C2835      C3061   1.484       .  S
C2837      C2930   1.485       .  S
C2838      C2914   1.481       .  S
O2840      V2847   1.895       .  S
O2840      C2850   1.263       .  A
O2841      V2847   1.899   1_655  S
O2841      C2851   1.265       .  A
O2842      C2852   1.264       .  A
O2843      C2852   1.264       .  A
O2844      V2848   1.897   1_655  S
O2844      C2851   1.264       .  A
O2846      V2848   1.902       .  S
O2846      C2849   1.265       .  A
V2847      V2848   2.087       .  T
C2849      C3013   1.481       .  S
C2851      C2885   1.486       .  S
C2852      C2898   1.474       .  S
O2853      V2861   1.895       .  S
O2853      C2863   1.263       .  A
O2854      V2861   1.896       .  S
O2854      C2864   1.263   1_565  A
O2855      V2861   1.896       .  S
O2855      C2865   1.263       .  A
O2856      V2861   1.894       .  S
O2856      C2866   1.265   1_565  A
O2857      V2862   1.897       .  S
O2858      V2862   1.897       .  S
O2859      V2862   1.899       .  S
O2860      V2862   1.900       .  S
C2863      C2997   1.475       .  S
C2865      C2917   1.482       .  S
C2866      C2933   1.487       .  S
O2867      V2875   1.902       .  S
O2867      C2877   1.265       .  A
O2868      V2875   1.901       .  S
O2868      C2878   1.264       .  A
O2869      V2875   1.898       .  S
O2869      C2879   1.264       .  A
O2870      V2875   1.897       .  S
O2870      C2880   1.263       .  A
O2871      V2876   1.900       .  S
O2871      C2880   1.266       .  A
O2872      V2876   1.897       .  S
O2872      C2879   1.263       .  A
O2873      V2876   1.895       .  S
O2873      C2878   1.263       .  A
O2874      V2876   1.898       .  S
O2874      C2877   1.263       .  A
V2875      V2876   2.086       .  T
C2877      C2949   1.478       .  S
C2879      C2901   1.476       .  S
C2880      C2882   1.486       .  S
C2881      C2882   1.404       .  A
C2881      C2886   1.404       .  A
C2881      H2888   1.084       .  S
C2882      C2883   1.418       .  A
C2883      C2884   1.404       .  A
C2883      C2890   1.508       .  S
C2884      C2885   1.405       .  A
C2884      H2889   1.084       .  S
C2885      C2886   1.418       .  A
C2886      C2887   1.508       .  S
C2887      H2891   1.111       .  S
C2887      H2892   1.111       .  S
C2887      H2893   1.110       .  S
C2890      H2894   1.110       .  S
C2890      H2895   1.110       .  S
C2890      H2896   1.111       .  S
C2897      C2898   1.403       .  A
C2897      C2902   1.403       .  A
C2897      H2904   1.084       .  S
C2898      C2899   1.416       .  A
C2899      C2900   1.402       .  A
C2899      C2906   1.509       .  S
C2900      C2901   1.402       .  A
C2900      H2905   1.085       .  S
C2901      C2902   1.414       .  A
C2902      C2903   1.508       .  S
C2903      H2907   1.111       .  S
C2903      H2908   1.109       .  S
C2903      H2909   1.111       .  S
C2906      H2910   1.106       .  S
C2906      H2911   1.110       .  S
C2906      H2912   1.111       .  S
C2913      C2914   1.404       .  A
C2913      C2918   1.402       .  A
C2913      H2920   1.084       .  S
C2915      C2916   1.402       .  A
C2915      C2922   1.508       .  S
C2916      H2921   1.084       .  S
C2917      C2918   1.417       .  A
C2918      C2919   1.509       .  S
C2919      H2923   1.111       .  S
C2919      H2924   1.110       .  S
C2919      H2925   1.111       .  S
C2922      H2926   1.111       .  S
C2922      H2927   1.109       .  S
C2922      H2928   1.110       .  S
C2929      C2934   1.402       .  A
C2929      H2936   1.083       .  S
C2930      C2931   1.418       .  A
C2931      C2932   1.401       .  A
C2931      C2938   1.509       .  S
C2932      C2933   1.405   1_565  A
C2932      H2937   1.084       .  S
C2934      C2935   1.509       .  S
C2935      H2939   1.111       .  S
C2935      H2940   1.110       .  S
C2935      H2941   1.110       .  S
C2938      H2942   1.110       .  S
C2938      H2943   1.110       .  S
C2938      H2944   1.111       .  S
C2945      C2946   1.403       .  A
C2945      C2950   1.404       .  A
C2945      H2952   1.084       .  S
C2946      C2947   1.416       .  A
C2947      C2948   1.404       .  A
C2947      C2954   1.508       .  S
C2948      C2949   1.402       .  A
C2948      H2953   1.084       .  S
C2949      C2950   1.415       .  A
C2950      C2951   1.508       .  S
C2951      H2955   1.111       .  S
C2951      H2956   1.109       .  S
C2951      H2957   1.111       .  S
C2954      H2958   1.109       .  S
C2954      H2959   1.111       .  S
C2954      H2960   1.111       .  S
C2961      C2962   1.403       .  A
C2961      C2966   1.404       .  A
C2961      H2968   1.084       .  S
C2962      C2963   1.416       .  A
C2963      C2964   1.404       .  A
C2963      C2970   1.508       .  S
C2964      C2965   1.404       .  A
C2964      H2969   1.084       .  S
C2965      C2966   1.416       .  A
C2966      C2967   1.508       .  S
C2967      H2971   1.111       .  S
C2967      H2972   1.109       .  S
C2967      H2973   1.111       .  S
C2970      H2974   1.111       .  S
C2970      H2975   1.109       .  S
C2970      H2976   1.111       .  S
C2977      C2978   1.404       .  A
C2977      C2982   1.404       .  A
C2977      H2984   1.084       .  S
C2978      C2979   1.416       .  A
C2979      C2980   1.404       .  A
C2979      C2986   1.508       .  S
C2980      C2981   1.404       .  A
C2980      H2985   1.084       .  S
C2981      C2982   1.416       .  A
C2982      C2983   1.508       .  S
C2983      H2987   1.111       .  S
C2983      H2988   1.111       .  S
C2983      H2989   1.109       .  S
C2986      H2990   1.109       .  S
C2986      H2991   1.111       .  S
C2986      H2992   1.111       .  S
C2993      C2994   1.404       .  A
C2993      C2998   1.403       .  A
C2993      H3000   1.084       .  S
C2995      C2996   1.403       .  A
C2995      C3002   1.508       .  S
C2996      H3001   1.084       .  S
C2997      C2998   1.413       .  A
C2998      C2999   1.508       .  S
C2999      H3003   1.111       .  S
C2999      H3004   1.109       .  S
C3002      H3007   1.111       .  S
C3002      H3008   1.111       .  S
C3009      C3014   1.405       .  A
C3009      H3016   1.084       .  S
C3010      C3011   1.413       .  A
C3011      C3012   1.404       .  A
C3011      C3018   1.507       .  S
C3012      C3013   1.405       .  A
C3012      H3017   1.084       .  S
C3014      C3015   1.508       .  S
C3015      H3019   1.111       .  S
C3015      H3020   1.111       .  S
C3015      H3021   1.109       .  S
C3018      H3022   1.111       .  S
C3018      H3023   1.109       .  S
C3018      H3024   1.111       .  S
C3025      C3030   1.403       .  A
C3025      H3032   1.084       .  S
C3026      C3027   1.418   1_455  A
C3027      C3028   1.403       .  A
C3027      C3034   1.509       .  S
C3028      C3029   1.405   1_655  A
C3028      H3033   1.084       .  S
C3030      C3031   1.509       .  S
C3031      H3035   1.111       .  S
C3031      H3036   1.110       .  S
C3031      H3037   1.110       .  S
C3034      H3038   1.111       .  S
C3034      H3039   1.110       .  S
C3034      H3040   1.111       .  S
C3041      C3046   1.402       .  A
C3041      H3048   1.084       .  S
C3042      C3043   1.419       .  A
C3043      C3044   1.404       .  A
C3043      C3050   1.508       .  S
C3044      C3045   1.405   1_655  A
C3044      H3049   1.084       .  S
C3046      C3047   1.508       .  S
C3047      H3051   1.111       .  S
C3047      H3053   1.106       .  S
C3050      H3054   1.110       .  S
C3050      H3056   1.111       .  S
C3057      C3062   1.404       .  A
C3057      H3064   1.085       .  S
C3058      C3059   1.412   1_655  A
C3059      C3060   1.402       .  A
C3059      C3066   1.509       .  S
C3060      H3065   1.084       .  S
C3062      C3063   1.508       .  S
C3063      H3067   1.111       .  S
C3063      H3068   1.109       .  S
C3066      H3071   1.107       .  S
C3066      H3072   1.111       .  S
C3073      C3074   1.404       .  A
C3073      C3078   1.404       .  A
C3073      H3080   1.084       .  S
C3074      C3075   1.417       .  A
C3075      C3076   1.404       .  A
C3075      C3082   1.508   1_554  S
C3076      C3077   1.404       .  A
C3076      H3081   1.084       .  S
C3077      C3078   1.417       .  A
C3078      C3079   1.508       .  S
C3079      H3083   1.111       .  S
C3079      H3084   1.109       .  S
C3079      H3085   1.111       .  S
C3082      H3086   1.111       .  S
C3082      H3087   1.109   1_556  S
C3082      H3088   1.111       .  S
C3089      C3090   1.405       .  A
C3089      C3094   1.403       .  A
C3089      H3096   1.084       .  S
C3090      C3091   1.418       .  A
C3091      C3092   1.404       .  A
C3091      C3098   1.509       .  S
C3092      C3093   1.406       .  A
C3092      H3097   1.084       .  S
C3093      C3094   1.418       .  A
C3094      C3095   1.509       .  S
C3095      H3099   1.111       .  S
C3095      H3100   1.110   1_554  S
C3095      H3101   1.110       .  S
C3098      H3102   1.110       .  S
C3098      H3103   1.111       .  S
C3098      H3104   1.111       .  S
C3105      C3110   1.403       .  A
C3105      H3112   1.084       .  S
C3106      C3107   1.415       .  A
C3107      C3108   1.404       .  A
C3107      C3114   1.508       .  S
C3108      C3109   1.405   1_655  A
C3108      H3113   1.084       .  S
C3110      C3111   1.508   1_554  S
C3111      H3115   1.111       .  S
C3111      H3116   1.111       .  S
C3111      H3117   1.109   1_556  S
C3114      H3118   1.109       .  S
C3114      H3119   1.111       .  S
C3114      H3120   1.111       .  S
C3121      C3126   1.405       .  A
C3121      H3128   1.084       .  S
C3122      C3123   1.417   1_455  A
C3123      C3124   1.404       .  A
C3123      C3130   1.508   1_554  S
C3124      C3125   1.404   1_655  A
C3124      H3129   1.084       .  S
C3126      C3127   1.508       .  S
C3127      H3131   1.111       .  S
C3127      H3132   1.110       .  S
C3127      H3133   1.110       .  S
C3130      H3134   1.111       .  S
C3130      H3135   1.109   1_556  S
C3130      H3136   1.111       .  S
C3137      C3138   1.405       .  A
C3137      C3142   1.404       .  A
C3137      H3144   1.084       .  S
C3138      C3139   1.417       .  A
C3139      C3140   1.402       .  A
C3139      C3146   1.509       .  S
C3140      C3141   1.404       .  A
C3140      H3145   1.084       .  S
C3141      C3142   1.417       .  A
C3142      C3143   1.508       .  S
C3143      H3147   1.111       .  S
C3143      H3148   1.110       .  S
C3143      H3149   1.110       .  S
C3146      H3150   1.109       .  S
C3146      H3151   1.111       .  S
C3146      H3152   1.111       .  S
C3153      C3154   1.403       .  A
C3153      C3158   1.402       .  A
C3153      H3160   1.084       .  S
C3154      C3155   1.416       .  A
C3155      C3156   1.405       .  A
C3155      C3162   1.508       .  S
C3156      C3157   1.404       .  A
C3156      H3161   1.084       .  S
C3157      C3158   1.415       .  A
C3158      C3159   1.508       .  S
C3159      H3163   1.111       .  S
C3159      H3164   1.109       .  S
C3159      H3165   1.111       .  S
C3162      H3166   1.111       .  S
C3162      H3167   1.109       .  S
C3162      H3168   1.111       .  S
C3169      C3174   1.404       .  A
C3169      H3176   1.084       .  S
C3170      C3171   1.416       .  A
C3171      C3172   1.404       .  A
C3171      C3178   1.508       .  S
C3172      C3173   1.403   1_565  A
C3172      H3177   1.084       .  S
C3174      C3175   1.508       .  S
C3175      H3179   1.110       .  S
C3175      H3180   1.111       .  S
C3175      H3181   1.109       .  S
C3178      H3182   1.109       .  S
C3178      H3183   1.111       .  S
C3178      H3184   1.111       .  S
C3185      C3190   1.404       .  A
C3185      H3192   1.084       .  S
C3186      C3187   1.414   1_545  A
C3187      C3188   1.403       .  A
C3187      C3194   1.508       .  S
C3188      C3189   1.403   1_565  A
C3188      H3193   1.084       .  S
C3190      C3191   1.507       .  S
C3191      H3195   1.108       .  S
C3191      H3196   1.111       .  S
C3191      H3197   1.109       .  S
C3194      H3198   1.109       .  S
C3194      H3199   1.111       .  S
C3194      H3200   1.111       .  S
C3201      C3202   1.404       .  A
C3201      C3206   1.404       .  A
C3201      H3208   1.084       .  S
C3202      C3203   1.416       .  A
C3203      C3204   1.402       .  A
C3203      C3210   1.509       .  S
C3204      C3205   1.403       .  A
C3204      H3209   1.084       .  S
C3205      C3206   1.416       .  A
C3206      C3207   1.508       .  S
C3207      H3211   1.111       .  S
C3207      H3212   1.111       .  S
C3207      H3213   1.109       .  S
C3210      H3214   1.109       .  S
C3210      H3215   1.111       .  S
C3210      H3216   1.111       .  S
C3217      C3218   1.405       .  A
C3217      C3222   1.403       .  A
C3217      H3224   1.084       .  S
C3218      C3219   1.417       .  A
C3219      C3220   1.402       .  A
C3219      C3226   1.509       .  S
C3220      C3221   1.405       .  A
C3220      H3225   1.084       .  S
C3221      C3222   1.417       .  A
C3222      C3223   1.509       .  S
C3223      H3227   1.111       .  S
C3223      H3228   1.110       .  S
C3223      H3229   1.111       .  S
C3226      H3230   1.111       .  S
C3226      H3231   1.110       .  S
C3226      H3232   1.111       .  S
C3233      C3234   1.404       .  A
C3233      C3238   1.401       .  A
C3233      H3240   1.084       .  S
C3235      C3236   1.402       .  A
C3235      C3242   1.509       .  S
C3236      H3241   1.084       .  S
C3237      C3238   1.415       .  A
C3238      C3239   1.509       .  S
C3239      H3243   1.111       .  S
C3239      H3244   1.111       .  S
C3239      H3245   1.109       .  S
C3242      H3246   1.111       .  S
C3242      H3247   1.110       .  S
C3242      H3248   1.111       .  S
C3249      C3254   1.400       .  A
C3249      H3256   1.085       .  S
C3250      C3251   1.416       .  A
C3251      C3252   1.403       .  A
C3251      C3258   1.508       .  S
C3252      C3253   1.404       .  A
C3252      H3257   1.085       .  S
C3254      C3255   1.508       .  S
C3255      H3259   1.111       .  S
C3255      H3260   1.110       .  S
C3258      H3263   1.109       .  S
C3258      H3264   1.110       .  S
C3265      C3266   1.401       .  A
C3265      C3270   1.404       .  A
C3265      H3272   1.085       .  S
C3266      C3267   1.412       .  A
C3267      C3268   1.404       .  A
C3267      C3274   1.508       .  S
C3268      C3269   1.406       .  A
C3268      H3273   1.084       .  S
C3269      C3270   1.418       .  A
C3270      C3271   1.508       .  S
C3271      H3275   1.111       .  S
C3271      H3276   1.111       .  S
C3271      H3277   1.110       .  S
C3274      H3278   1.111       .  S
C3274      H3279   1.109       .  S
C3274      H3280   1.111       .  S
C3281      C3282   1.403       .  A
C3281      C3286   1.403       .  A
C3281      H3288   1.084       .  S
C3282      C3283   1.416       .  A
C3283      C3284   1.404       .  A
C3283      C3290   1.508       .  S
C3284      C3285   1.404       .  A
C3284      H3289   1.084       .  S
C3285      C3286   1.416       .  A
C3286      C3287   1.508       .  S
C3287      H3291   1.111       .  S
C3287      H3292   1.109       .  S
C3287      H3293   1.111       .  S
C3290      H3294   1.111       .  S
C3290      H3295   1.109       .  S
C3290      H3296   1.111       .  S
C3297      C3298   1.404       .  A
C3297      C3302   1.402       .  A
C3297      H3304   1.084       .  S
C3298      C3299   1.419       .  A
C3299      C3300   1.405       .  A
C3299      C3306   1.508       .  S
C3300      C3301   1.406       .  A
C3300      H3305   1.084       .  S
C3301      C3302   1.420       .  A
C3302      C3303   1.509       .  S
C3303      H3307   1.111       .  S
C3303      H3308   1.111       .  S
C3303      H3309   1.110       .  S
C3306      H3310   1.110       .  S
C3306      H3311   1.109       .  S
C3306      H3312   1.111       .  S
C3313      C3318   1.403       .  A
C3313      H3320   1.084       .  S
C3314      C3315   1.409       .  A
C3315      C3316   1.405       .  A
C3315      C3322   1.507       .  S
C3316      C3317   1.409       .  A
C3316      H3321   1.084       .  S
C3318      C3319   1.505       .  S
C3319      H3323   1.111       .  S
C3319      H3324   1.111       .  S
C3319      H3325   1.109       .  S
C3322      H3326   1.111       .  S
C3322      H3327   1.110       .  S
C3322      H3328   1.111       .  S
C3329      C3334   1.403       .  A
C3329      H3336   1.085       .  S
C3330      C3331   1.413       .  A
C3331      C3332   1.402       .  A
C3331      C3338   1.509       .  S
C3332      C3333   1.405   1_655  A
C3332      H3337   1.084       .  S
C3334      C3335   1.508       .  S
C3335      H3339   1.111       .  S
C3335      H3340   1.110       .  S
C3335      H3341   1.111       .  S
C3338      H3342   1.107       .  S
C3338      H3343   1.111       .  S
C3338      H3344   1.110       .  S
C3345      C3350   1.403       .  A
C3345      H3352   1.084       .  S
C3346      C3347   1.418       .  A
C3347      C3348   1.405       .  A
C3347      C3354   1.508       .  S
C3348      C3349   1.405       .  A
C3348      H3353   1.084       .  S
C3350      C3351   1.509       .  S
C3351      H3355   1.111       .  S
C3351      H3356   1.110       .  S
C3351      H3357   1.110       .  S
C3354      H3358   1.109       .  S
C3354      H3359   1.111       .  S
C3354      H3360   1.111       .  S
C3361      C3362   1.405       .  A
C3361      C3366   1.404       .  A
C3361      H3368   1.084       .  S
C3363      C3364   1.402       .  A
C3363      C3370   1.509       .  S
C3364      H3369   1.084       .  S
C3365      C3366   1.416       .  A
C3366      C3367   1.508       .  S
C3367      H3371   1.111       .  S
C3367      H3372   1.110       .  S
C3367      H3373   1.110       .  S
C3370      H3374   1.110       .  S
C3370      H3375   1.111       .  S
C3370      H3376   1.111       .  S
C3377      C3378   1.403   1_655  A
C3377      C3382   1.405       .  A
C3377      H3384   1.084       .  S
C3379      C3380   1.404       .  A
C3379      C3386   1.508       .  S
C3380      H3385   1.084       .  S
C3381      C3382   1.416       .  A
C3382      C3383   1.508       .  S
C3383      H3387   1.111       .  S
C3383      H3389   1.111       .  S
C3386      H3390   1.109       .  S
C3386      H3392   1.111       .  S
