geometry optimzed in LAMMPS
_audit_creation_date              2020-11-30 
_audit_creation_method            'lammps2cif' 
_symmetry_space_group_name_H-M    'P1' 
_symmetry_Int_Tables_number       1 
_symmetry_cell_setting            triclinic 
loop_ 
_symmetry_equiv_pos_as_xyz 
  x,y,z 
_cell_length_a                    52.64846776 
_cell_length_b                    52.49989604729151 
_cell_length_c                    30.117602058841783 
_cell_angle_alpha                 89.78540345813849 
_cell_angle_beta                  90.58687061783058 
_cell_angle_gamma                 119.95030664905102 
loop_ 
_atom_site_label 
_atom_site_type_symbol 
_atom_site_fract_x 
_atom_site_fract_y 
_atom_site_fract_z 
_atom_site_charge 
C1          C  0.21677151  0.22513684  0.29105374     0.04000
C2          C  0.24147684  0.24829662  0.31201922    -0.12200
C3          C  0.26439231  0.27002381  0.28688709     0.01500
C4          C  0.26265263  0.26855848  0.24046871    -0.10700
C5          C  0.23821788  0.24554004  0.21916726     0.04000
C6          C  0.21541806  0.22384785  0.24445350    -0.10100
H7          H  0.24296690  0.24942590  0.34795884     0.09600
H8          H  0.28049455  0.28508326  0.22092443     0.07100
H9          H  0.19698492  0.20565553  0.22778951     0.06900
C10         C  0.21873644  0.22366327  0.81294371     0.04000
C11         C  0.21758448  0.22345596  0.85954817    -0.12200
C12         C  0.24063768  0.24542551  0.88489244     0.01500
C13         C  0.26516908  0.26772860  0.86305312    -0.10700
C14         C  0.26622432  0.26869701  0.81660510     0.04000
C15         C  0.24319759  0.24653642  0.79166574    -0.10100
H16         H  0.19855664  0.20619605  0.87614635     0.09600
H17         H  0.28343700  0.28443917  0.88211916     0.07100
H18         H  0.24462726  0.24686080  0.75578851     0.06900
C19         C  0.23916894  0.47298619  0.29918034     0.04000
C20         C  0.21311261  0.46958465  0.31712280    -0.12200
C21         C  0.18992878  0.46586992  0.28925103     0.01500
C22         C  0.19305411  0.46588453  0.24313661    -0.10700
C23         C  0.21905228  0.46966031  0.22469541     0.04000
C24         C  0.24211932  0.47336142  0.25279531    -0.10100
H25         H  0.21096890  0.47006190  0.35281383     0.09600
H26         H  0.17525809  0.46312181  0.22150102     0.07100
H27         H  0.26203483  0.47579080  0.23857286     0.06900
C28         C  0.24194306  0.46839115  0.81860989     0.04000
C29         C  0.21746436  0.46672077  0.79668112    -0.12200
C30         C  0.19461999  0.46637290  0.82072763     0.01500
C31         C  0.19574223  0.46658039  0.86731592    -0.10700
C32         C  0.21957897  0.46724763  0.88980959     0.04000
C33         C  0.24268059  0.46842420  0.86526898    -0.10100
H34         H  0.21623432  0.46596027  0.76073543     0.09600
H35         H  0.17814631  0.46634001  0.88602603     0.07100
H36         H  0.26153787  0.46997319  0.88261681     0.06900
C37         C  0.49520573  0.23989493  0.28990436     0.04000
C38         C  0.49352335  0.21503552  0.31059621    -0.12200
C39         C  0.49436060  0.19304712  0.28548275     0.01500
C40         C  0.49703639  0.19589408  0.23927474    -0.10700
C41         C  0.49871166  0.22051008  0.21790341     0.04000
C42         C  0.49726220  0.24215482  0.24335484    -0.10100
H43         H  0.49177469  0.21281896  0.34639896     0.09600
H44         H  0.49723126  0.17863984  0.21990503     0.07100
H45         H  0.49788428  0.26083595  0.22688278     0.06900
C46         C  0.50278465  0.24191131  0.81083073     0.04000
C47         C  0.50268037  0.24354747  0.85732475    -0.12200
C48         C  0.50462561  0.22247381  0.88366466     0.01500
C49         C  0.50767256  0.20014928  0.86326147    -0.10700
C50         C  0.50809694  0.19829085  0.81683766     0.04000
C51         C  0.50565769  0.21932010  0.79088272    -0.10100
H52         H  0.50001670  0.26060510  0.87303156     0.09600
H53         H  0.50944919  0.18402499  0.88365171     0.07100
H54         H  0.50541866  0.21779632  0.75504668     0.06900
O55         O  0.41593029  0.99555693  0.50828014    -0.87300
C56         C  0.07076380  0.06299528  0.61224533     1.12700
O57         O  0.45401625  0.47573330  0.55693691    -1.35100
O58         O  0.04654998  0.06515140  0.49922140    -0.88800
O59         O  0.39375651  0.45245282  0.50939468    -0.89500
O60         O  0.45214638  0.44519195  0.46151775    -0.78300
O61         O  0.48134835  0.03107379  0.51073830    -1.00400
C62         C  0.03674859  0.47584022  0.47177961     1.22800
O63         O  0.48488231  0.44500220  0.55419120    -1.35300
Mn64       Mn  0.48552549  0.47540041  0.60377886     1.82100
O65         O  0.01393182  0.47586828  0.45949299    -0.77400
O66         O  0.07364329  0.04331648  0.49875230    -0.86800
C67         C  0.03898616  0.47429963  0.63430047     1.13800
C68         C  0.06759298  0.06252740  0.48428349     1.08600
O69         O  0.45546662  0.44465910  0.64935760    -0.78300
O70         O  0.01584166  0.00611348  0.54966163    -1.32000
O71         O  0.42846288  0.41820800  0.59678250    -0.97500
C72         C  0.48539131  0.39007010  0.48935244     1.07300
Mn73       Mn  0.05808399  0.01079173  0.54834066     1.48600
O74         O  0.46104095  0.38422624  0.50666129    -0.86700
Mn75       Mn  0.41241519  0.43692117  0.55717761     1.49600
O76         O  0.42087995  0.50012454  0.61162928    -0.90600
C77         C  0.48099097  0.02718926  0.47079233     1.20500
C78         C  0.40057965  0.47522893  0.62498432     1.12500
Mn79       Mn  0.48358588  0.47585481  0.50711527     1.81000
O80         O  0.04319452  0.47514262  0.59443276    -0.95800
Mn81       Mn  0.45010864  0.01126052  0.55478137     1.49300
C82         C  0.39763939  0.47745263  0.49729549     1.09100
Mn83       Mn  0.02436866  0.44269307  0.55176416     1.49900
C84         C  0.48802406  0.39035908  0.61563902     1.12000
O85         O  0.42539378  0.41633301  0.51306115    -1.01600
O86         O  0.07534382  0.04291290  0.59803194    -0.91200
C87         C  0.42976841  0.42164628  0.47280645     1.23200
O88         O  0.04098376  0.47606911  0.51147384    -1.01900
O89         O  0.04986718  0.06634354  0.59757608    -0.89300
O90         O  0.01103401  0.40947309  0.59908495    -0.88900
O91         O  0.39608045  0.45113609  0.60826447    -0.89000
Mn92       Mn  0.01625169  0.04672586  0.54993241     1.47900
O93         O  0.01635383  0.47416960  0.64703445    -0.77400
C94         C  0.43265025  0.42197626  0.63666907     1.16300
O95         O  0.48257578  0.00532445  0.45773213    -0.76200
O96         O  0.48693839  0.00536978  0.64546427    -0.75800
Mn97       Mn  0.44673520  0.40286883  0.55584187     1.51100
O98         O  0.00978766  0.41121192  0.50157368    -0.88100
O99         O  0.48452311  0.03115528  0.59379301    -0.95700
O100        O  0.46287678  0.38677830  0.60601249    -0.90700
C101        C  0.48700077  0.02825558  0.63335751     1.14100
C102        C  0.52221827  0.15234262  0.73398471    -0.13500
C103        C  0.50151500  0.12372552  0.74717295     0.16900
C104        C  0.48505210  0.11966577  0.78589140     0.03200
C105        C  0.48889478  0.14439130  0.80956724    -0.12000
C106        C  0.50872227  0.17313008  0.79526127    -0.03100
C107        C  0.02536746  0.17604533  0.75873801     0.02400
C108        C  0.49702744  0.09868991  0.71880399     0.09200
N109        N  0.46316158  0.09086647  0.80020346     0.65600
H110        H  0.47507660  0.14115961  0.83759326     0.18500
N111        N  0.04803282  0.20494092  0.74597873     0.76100
H112        H  0.03484228  0.15493207  0.70606560     0.10000
C113        C  0.48840243  0.09707338  0.67397351     0.03700
C114        C  0.48560620  0.07402894  0.64735678    -0.05000
C115        C  0.49107180  0.05214420  0.66419968    -0.23400
C116        C  0.50022231  0.05406429  0.70895977     0.13000
C117        C  0.50276552  0.07708509  0.73596524    -0.12500
N118        N  0.48179095  0.11828718  0.65500387     0.64600
H119        H  0.47835984  0.07289391  0.61366809     0.12500
N120        N  0.50788819  0.03355023  0.72719815     0.61300
H121        H  0.51002234  0.07862169  0.76989192     0.08700
O122        O  0.05498152  0.21077006  0.70569744    -0.40200
O123        O  0.06320203  0.22375384  0.77524515    -0.39400
O124        O  0.45943964  0.08494043  0.84109673    -0.39300
O125        O  0.44545686  0.07236202  0.77251211    -0.37100
O126        O  0.47859964  0.50489026  0.73756936    -0.38000
O127        O  0.52923562  0.03204392  0.71147998    -0.34100
O128        O  0.48984412  0.12762987  0.61606719    -0.35500
O129        O  0.46568639  0.12573664  0.67543754    -0.39800
C130        C  0.47809478  0.27609567  0.72054810    -0.13500
C131        C  0.49688891  0.30614515  0.72849171     0.16900
C132        C  0.01493462  0.31345509  0.76422897     0.03200
C133        C  0.01536746  0.29190263  0.79150979    -0.12000
C134        C  0.49945716  0.26358221  0.78308793    -0.03100
C135        C  0.47887347  0.25469052  0.74764759     0.02400
C136        C  0.49433817  0.32774971  0.69981914     0.09200
N137        N  0.03519311  0.34397872  0.77307383     0.65600
H138        H  0.03095461  0.29870595  0.81881191     0.18500
N139        N  0.45795842  0.22422473  0.73971185     0.76100
H140        H  0.46215533  0.26931002  0.69372710     0.10000
C141        C  0.50259612  0.33095857  0.65501287     0.03700
C142        C  0.50062508  0.35187773  0.62875198    -0.05000
C143        C  0.49006563  0.36953371  0.64616059    -0.23400
C144        C  0.48102702  0.36603010  0.69088306     0.13000
C145        C  0.48334749  0.34507542  0.71731548    -0.12500
N146        N  0.51328048  0.31325676  0.63591042     0.64600
H147        H  0.50720295  0.35422806  0.59429100     0.12500
N148        N  0.47025348  0.38383347  0.71011076     0.61300
H149        H  0.97705517  0.34233364  0.75080351     0.08700
O150        O  0.45069077  0.21478943  0.70047675    -0.40200
O151        O  0.44448273  0.20738639  0.77170014    -0.39400
O152        O  0.04136688  0.35312640  0.81259499    -0.39300
O153        O  0.04913392  0.36125343  0.74174433    -0.37100
O154        O  0.45167200  0.37369148  0.74086803    -0.38000
O155        O  0.98154281  0.41009417  0.69738812    -0.34100
O156        O  0.49784248  0.29370978  0.60775293    -0.35500
O157        O  0.53907147  0.31878390  0.64430275    -0.39800
C158        C  0.01021146  0.13398558  0.33072615    -0.13500
C159        C  0.48334931  0.11489629  0.34988104     0.16900
C160        C  0.45949654  0.12011097  0.34535121     0.03200
C161        C  0.46398068  0.14611518  0.32495881    -0.12000
C162        C  0.49130160  0.16647268  0.30755873    -0.03100
C163        C  0.01459742  0.15965441  0.30926875     0.02400
C164        C  0.48138117  0.09089091  0.37881038     0.09200
N165        N  0.43065474  0.09917508  0.36078018     0.65600
H166        H  0.44586970  0.15027654  0.32172034     0.18500
N167        N  0.04274578  0.17930248  0.29052413     0.76100
H168        H  0.02835118  0.12985883  0.33364732     0.10000
C169        C  0.98931017  0.06978220  0.36438768     0.03700
C170        C  0.98891697  0.04894699  0.39443457    -0.05000
C171        C  0.48049628  0.04887687  0.43930574    -0.23400
C172        C  0.47178538  0.06916390  0.45286068     0.13000
C173        C  0.47226118  0.08966576  0.42270787    -0.12500
N174        N  0.99763959  0.06954444  0.31917771     0.64600
H175        H  0.99510575  0.03331347  0.38292775     0.12500
N176        N  0.46295223  0.06985605  0.49739118     0.61300
H177        H  0.46615763  0.10539601  0.43414291     0.08700
O178        O  0.05699520  0.16915453  0.27125135    -0.40200
O179        O  0.05473123  0.20666248  0.29699309    -0.39400
O180        O  0.41344366  0.10775821  0.37380640    -0.39300
O181        O  0.42126153  0.07192679  0.35752820    -0.37100
O182        O  0.48234050  0.08326119  0.52682968    -0.38000
O183        O  0.43694539  0.06373934  0.50464913    -0.34100
O184        O  0.01776906  0.06395078  0.31053594    -0.35500
O185        O  0.98360227  0.07285824  0.28759694    -0.39800
C186        C  0.46362877  0.32788101  0.40523112    -0.13500
C187        C  0.48999407  0.32760682  0.40093175     0.16900
C188        C  0.01501578  0.34761234  0.42523925     0.03200
C189        C  0.01320412  0.36874088  0.45134969    -0.12000
C190        C  0.48652907  0.36942220  0.45646497    -0.03100
C191        C  0.46159779  0.34807109  0.43315639     0.02400
C192        C  0.49073006  0.30494816  0.37211461     0.09200
N193        N  0.04155696  0.34615686  0.42652377     0.65600
H194        H  0.03208304  0.38347298  0.47135078     0.18500
N195        N  0.43428697  0.34736850  0.43555570     0.76100
H196        H  0.44430540  0.31206128  0.38701901     0.10000
C197        C  0.47094297  0.27458401  0.37802953     0.03700
C198        C  0.47252347  0.25411560  0.35006761    -0.05000
C199        C  0.49405454  0.26294833  0.31717931    -0.23400
C200        C  0.01567010  0.29313999  0.31255975     0.13000
C201        C  0.01314152  0.31371967  0.33903900    -0.12500
N202        N  0.44971787  0.26404990  0.41297062     0.64600
H203        H  0.45711639  0.23094621  0.35472065     0.12500
N204        N  0.04012031  0.30330738  0.28307434     0.61300
H205        H  0.02905416  0.33685625  0.33555828     0.08700
O206        O  0.41542903  0.33052751  0.46311988    -0.40200
O207        O  0.42637528  0.35700606  0.40305987    -0.39400
O208        O  0.06613602  0.36950354  0.42786611    -0.39300
O209        O  0.04049954  0.32174580  0.43134327    -0.37100
O210        O  0.04881297  0.32694826  0.26178164    -0.38000
O211        O  0.05522049  0.29072256  0.28229807    -0.34100
O212        O  0.42418710  0.24283084  0.40588796    -0.35500
O213        O  0.45724228  0.27376136  0.45202997    -0.39800
C214        C  0.48171825  0.19975284  0.00319933    -0.13500
C215        C  0.50199668  0.22513784  0.02608980     0.16900
C216        C  0.52258885  0.24977266  0.00215914     0.03200
C217        C  0.52275381  0.24874340  0.95572673    -0.12000
C218        C  0.50263990  0.22327506  0.93260811    -0.03100
C219        C  0.48164465  0.19859084  0.95664641     0.02400
C220        C  0.50182697  0.22528185  0.07513482     0.09200
N221        N  0.04010272  0.27517255  0.02370312     0.65600
H222        H  0.03405893  0.26683006  0.93671978     0.18500
N223        N  0.45984111  0.17253742  0.93433420     0.76100
H224        H  0.46572645  0.18087091  0.02169195     0.10000
C225        C  0.48088247  0.22892823  0.09851705     0.03700
C226        C  0.48053500  0.22774302  0.14497638    -0.05000
C227        C  0.50097969  0.22310826  0.16879140    -0.23400
C228        C  0.02177878  0.21735414  0.14478696     0.13000
C229        C  0.02101191  0.21752504  0.09816419    -0.12500
N230        N  0.45979927  0.23373680  0.07537987     0.64600
H231        H  0.46398273  0.23011887  0.16254571     0.12500
N232        N  0.04323234  0.21239065  0.16691210     0.61300
H233        H  0.03606822  0.21330917  0.07964588     0.08700
O234        O  0.45311743  0.14747880  0.94931759    -0.40200
O235        O  0.44557516  0.17445010  0.90179112    -0.39400
O236        O  0.06377245  0.27819543  0.03938314    -0.39300
O237        O  0.03568417  0.29668249  0.02383395    -0.37100
O238        O  0.04975324  0.19412449  0.15129188    -0.38000
O239        O  0.05793421  0.22840635  0.19921689    -0.34100
O240        O  0.43303636  0.21427849  0.07571327    -0.35500
O241        O  0.46763156  0.25817386  0.05703585    -0.39800
C242        C  0.30182348  0.48954817  0.73243514    -0.13500
C243        C  0.31301484  0.47121442  0.74437610     0.16900
C244        C  0.30135190  0.45238552  0.78137103     0.03200
C245        C  0.27815545  0.45184967  0.80482223    -0.12000
C246        C  0.26683782  0.47022378  0.79294809    -0.03100
C247        C  0.27916880  0.48957744  0.75645711     0.02400
C248        C  0.33578551  0.47114380  0.71594027     0.09200
N249        N  0.31285631  0.43391251  0.79559084     0.65600
H250        H  0.26889140  0.43698856  0.83266793     0.18500
N251        N  0.27831047  0.01324608  0.74297024     0.76100
H252        H  0.31604981  0.00255921  0.70161253     0.10000
C253        C  0.32996919  0.44656730  0.68964878     0.03700
C254        C  0.35207214  0.44802151  0.66227633    -0.05000
C255        C  0.37969957  0.47373718  0.65940835    -0.23400
C256        C  0.38554098  0.49776234  0.68707971     0.13000
C257        C  0.36365514  0.49628773  0.71485040    -0.12500
N258        N  0.30152709  0.42051535  0.68889008     0.64600
H259        H  0.34696366  0.42931902  0.64130129     0.12500
N260        N  0.41387803  0.52336706  0.68888751     0.61300
H261        H  0.36842975  0.51496719  0.73571232     0.08700
O262        O  0.27778102  0.02064945  0.70318797    -0.40200
O263        O  0.27708045  0.02874778  0.77390281    -0.39400
O264        O  0.34013911  0.44351707  0.79565746    -0.39300
O265        O  0.29603245  0.40886683  0.81183763    -0.37100
O266        O  0.43075260  0.52641223  0.72095949    -0.38000
O267        O  0.41912011  0.54533518  0.66527848    -0.34100
O268        O  0.27860231  0.42249034  0.68705854    -0.35500
O269        O  0.29930895  0.39553654  0.68515827    -0.39800
C270        C  0.11863887  0.44714321  0.77841487    -0.13500
C271        C  0.12563720  0.47073319  0.74959440     0.16900
C272        C  0.15501347  0.49309795  0.74534825     0.03200
C273        C  0.16937806  0.99484249  0.80083706    -0.12000
C274        C  0.17034414  0.46722578  0.79674131    -0.03100
C275        C  0.14072899  0.44512605  0.80205946     0.02400
C276        C  0.10250493  0.47059614  0.72120551     0.09200
N277        N  0.14470334  0.02301441  0.78481915     0.65600
H278        H  0.18193327  0.01073026  0.82646591     0.18500
N279        N  0.13289706  0.42000535  0.82969331     0.76100
H280        H  0.09604010  0.42973375  0.78127571     0.10000
C281        C  0.09684921  0.45805468  0.67853895     0.03700
C282        C  0.07590403  0.45926793  0.65110582    -0.05000
C283        C  0.05987071  0.47243993  0.66572101    -0.23400
C284        C  0.06214715  0.97550682  0.70713252     0.13000
C285        C  0.08540717  0.97730279  0.73302026    -0.12500
N286        N  0.11231034  0.44402439  0.66268588     0.64600
H287        H  0.07213380  0.44977130  0.61817231     0.12500
N288        N  0.03562334  0.96949254  0.72888864     0.61300
H289        H  0.08289456  0.97441291  0.76858423     0.08700
O290        O  0.11122287  0.41076832  0.85526824    -0.40200
O291        O  0.14585892  0.40539591  0.82564779    -0.39400
O292        O  0.14400892  0.03045078  0.82439678    -0.39300
O293        O  0.14523211  0.03933997  0.75355646    -0.37100
O294        O  0.01186409  0.94665053  0.71877725    -0.38000
O295        O  0.03692418  0.98318987  0.76397346    -0.34100
O296        O  0.10086550  0.41648810  0.66576477    -0.35500
O297        O  0.13532060  0.45847010  0.64033047    -0.39800
C298        C  0.33837731  0.45850162  0.40842780    -0.13500
C299        C  0.33380351  0.48252773  0.41137940     0.16900
C300        C  0.35137888  0.50573994  0.44097439     0.03200
C301        C  0.37276977  0.50391237  0.46706807    -0.12000
C302        C  0.37649725  0.47910397  0.46557048    -0.03100
C303        C  0.35916441  0.45641129  0.43513419     0.02400
C304        C  0.31000709  0.48190485  0.38349561     0.09200
N305        N  0.34617969  0.02305429  0.43554826     0.65600
H306        H  0.38568148  0.52150959  0.49030483     0.18500
N307        N  0.36268769  0.43136518  0.42959945     0.76100
H308        H  0.32529220  0.44084256  0.38532026     0.10000
C309        C  0.31522123  0.50298148  0.35010584     0.03700
C310        C  0.29162514  0.49977618  0.32358174    -0.05000
C311        C  0.26317549  0.47575360  0.32885358    -0.23400
C312        C  0.25808448  0.45484040  0.36238893     0.13000
C313        C  0.28141563  0.45844250  0.38956302    -0.12500
N314        N  0.34513219  0.01646539  0.32983311     0.64600
H315        H  0.29557264  0.51586086  0.29798832     0.12500
N316        N  0.22985073  0.42903986  0.36780174     0.61300
H317        H  0.27743316  0.44214486  0.41483177     0.08700
O318        O  0.35116981  0.41068265  0.45734257    -0.40200
O319        O  0.36882217  0.42612910  0.39156180    -0.39400
O320        O  0.32073668  0.01978301  0.43515522    -0.39300
O321        O  0.36785831  0.04824722  0.44317385    -0.37100
O322        O  0.21601324  0.41377384  0.33440189    -0.38000
O323        O  0.22070334  0.41914387  0.40617076    -0.34100
O324        O  0.36596979  0.01111003  0.33213498    -0.35500
O325        O  0.35008286  0.04106111  0.31509550    -0.39800
C326        C  0.12429984  0.44395579  0.36312619    -0.13500
C327        C  0.11712601  0.46571042  0.35258981     0.16900
C328        C  0.13230152  0.48581880  0.31801850     0.03200
C329        C  0.15471643  0.48405959  0.29588385    -0.12000
C330        C  0.16295864  0.46338469  0.30835348    -0.03100
C331        C  0.14693242  0.44248851  0.34143849     0.02400
C332        C  0.09554835  0.46807434  0.38115410     0.09200
N333        N  0.12654370  0.50906096  0.30655592     0.65600
H334        H  0.16712496  0.50021835  0.27070666     0.18500
N335        N  0.15313719  0.41956150  0.35302354     0.76100
H336        H  0.11228814  0.42812786  0.38890595     0.10000
C337        C  0.06983039  0.46727654  0.36471966     0.03700
C338        C  0.05130059  0.47070593  0.39463340    -0.05000
C339        C  0.05739816  0.47394835  0.44050508    -0.23400
C340        C  0.08291651  0.47410050  0.45639072     0.13000
C341        C  0.10155588  0.47142461  0.42678837    -0.12500
N342        N  0.06982043  0.97358675  0.31276223     0.64600
H343        H  0.03515929  0.97273529  0.37720350     0.12500
N344        N  0.09044190  0.47694645  0.50260346     0.61300
H345        H  0.12121869  0.47217009  0.43971633     0.08700
O346        O  0.15787271  0.40578207  0.32299338    -0.40200
O347        O  0.15052723  0.41072609  0.39265664    -0.39400
O348        O  0.12431497  0.52454276  0.33652013    -0.39300
O349        O  0.12747544  0.51661690  0.26649018    -0.37100
O350        O  0.10447742  0.50211864  0.52009712    -0.38000
O351        O  0.08647318  0.45469070  0.52438042    -0.34100
O352        O  0.04397134  0.95993353  0.29745605    -0.35500
O353        O  0.09053657  0.98971539  0.28710284    -0.39800
C354        C  0.22606828  0.44778102  0.00960186    -0.13500
C355        C  0.22285706  0.46910833  0.03286553     0.16900
C356        C  0.21952735  0.49046866  0.00882181     0.03200
C357        C  0.21868507  0.48949772  0.96223749    -0.12000
C358        C  0.22073906  0.46746576  0.93904966    -0.03100
C359        C  0.22464938  0.44649763  0.96308827     0.02400
C360        C  0.22258328  0.46840523  0.08218891     0.09200
N361        N  0.21633037  0.51282872  0.03106849     0.65600
H362        H  0.21603061  0.50583882  0.94395895     0.18500
N363        N  0.22609557  0.42315451  0.94087716     0.76100
H364        H  0.22880415  0.43147309  0.02782834     0.10000
C365        C  0.20135375  0.44355898  0.10563811     0.03700
C366        C  0.20124358  0.44420462  0.15217594    -0.05000
C367        C  0.22156752  0.46920652  0.17586204    -0.23400
C368        C  0.24319310  0.49363187  0.15258258     0.13000
C369        C  0.24374001  0.49293544  0.10608539    -0.12500
N370        N  0.17922322  0.41794707  0.08284758     0.64600
H371        H  0.18465161  0.42536683  0.17002936     0.12500
N372        N  0.26624790  0.01530809  0.17143882     0.61300
H373        H  0.26245924  0.00924601  0.08395218     0.08700
O374        O  0.20601710  0.40661118  0.91408900    -0.40200
O375        O  0.24600030  0.41737367  0.95097117    -0.39400
O376        O  0.23014810  0.53906696  0.01755340    -0.39300
O377        O  0.19785083  0.50605855  0.06168445    -0.37100
O378        O  0.29275841  0.02197944  0.16856389    -0.38000
O379        O  0.25963652  0.03171291  0.19300397    -0.34100
O380        O  0.17213134  0.39263047  0.09710642    -0.35500
O381        O  0.16467534  0.42048867  0.05129290    -0.39800
C382        C  0.38461665  0.38612440  0.73780559    -0.13500
C383        C  0.36495842  0.35812751  0.72087336     0.16900
C384        C  0.36854958  0.35075542  0.67730075     0.03200
C385        C  0.39151999  0.37168656  0.65146238    -0.12000
C386        C  0.41080718  0.40011776  0.66766856    -0.03100
C387        C  0.40748334  0.40709560  0.71165923     0.02400
C388        C  0.34089322  0.33660050  0.74905322     0.09200
N389        N  0.34871075  0.32245812  0.65840779     0.65600
H390        H  0.39378490  0.36588981  0.61784878     0.18500
N391        N  0.42624853  0.43567980  0.72964915     0.76100
H392        H  0.38197790  0.39179813  0.77132297     0.10000
C393        C  0.34200242  0.31263819  0.76831806     0.03700
C394        C  0.31745130  0.29083490  0.79060529    -0.05000
C395        C  0.29186485  0.29261562  0.79412436    -0.23400
C396        C  0.29076103  0.31660792  0.77497027     0.13000
C397        C  0.31528959  0.33839026  0.75258644    -0.12500
N398        N  0.36775074  0.31004702  0.76499361     0.64600
H399        H  0.31827236  0.27235349  0.80515572     0.12500
N400        N  0.26483676  0.31892610  0.77758954     0.61300
H401        H  0.31424297  0.35654239  0.73723589     0.08700
O402        O  0.44599565  0.43946157  0.75731877    -0.40200
O403        O  0.41983850  0.45563902  0.72398400    -0.39400
O404        O  0.32136437  0.31143200  0.66247174    -0.39300
O405        O  0.35829017  0.30996490  0.63339795    -0.37100
O406        O  0.25382316  0.32311368  0.74284008    -0.38000
O407        O  0.25449058  0.31951694  0.81493246    -0.34100
O408        O  0.39231760  0.33095269  0.77738492    -0.35500
O409        O  0.36564127  0.28602056  0.75316159    -0.39800
C410        C  0.13622843  0.10683220  0.69056037    -0.13500
C411        C  0.12895891  0.12674893  0.70931231     0.16900
C412        C  0.10195456  0.12468771  0.69762630     0.03200
C413        C  0.08336879  0.10352917  0.66660839    -0.12000
C414        C  0.09087851  0.08397781  0.64670350    -0.03100
C415        C  0.11773127  0.08567250  0.65944531     0.02400
C416        C  0.15104507  0.15120464  0.73757997     0.09200
N417        N  0.09320419  0.14413256  0.71650628     0.65600
H418        H  0.06282053  0.10245415  0.65813002     0.18500
N419        N  0.12750589  0.06730327  0.63973788     0.76100
H420        H  0.15714747  0.10861115  0.69861623     0.10000
C421        C  0.16408466  0.14606498  0.77528684     0.03700
C422        C  0.18600596  0.17010039  0.79907700    -0.05000
C423        C  0.19487801  0.19923121  0.78689119    -0.23400
C424        C  0.18153836  0.20434055  0.74952442     0.13000
C425        C  0.16030225  0.18033113  0.72490360    -0.12500
N426        N  0.15520841  0.11675362  0.79015333     0.64600
H427        H  0.19619410  0.16600970  0.82752685     0.12500
N428        N  0.18861896  0.23355561  0.73680871     0.61300
H429        H  0.15061577  0.18441155  0.69581666     0.08700
O430        O  0.13543527  0.05298856  0.66435176    -0.40200
O431        O  0.13412122  0.07027410  0.59914392    -0.39400
O432        O  0.08264518  0.15611697  0.69189882    -0.39300
O433        O  0.09525409  0.14880425  0.75783051    -0.37100
O434        O  0.19014607  0.24030365  0.69625654    -0.38000
O435        O  0.19029217  0.25168954  0.76573991    -0.34100
O436        O  0.17392413  0.11084819  0.80618092    -0.35500
O437        O  0.12840714  0.09736919  0.79098469    -0.39800
C438        C  0.32628216  0.34441076  0.32575209    -0.13500
C439        C  0.34345883  0.33587534  0.35072340     0.16900
C440        C  0.33467501  0.30570125  0.35365984     0.03200
C441        C  0.30850708  0.28477530  0.33328615    -0.12000
C442        C  0.29105459  0.29322510  0.30917536    -0.03100
C443        C  0.30003261  0.32339667  0.30509661     0.02400
C444        C  0.36703555  0.35783117  0.38012983     0.09200
N445        N  0.35226794  0.29604022  0.37685328     0.65600
H446        H  0.30197870  0.26170490  0.33551461     0.18500
N447        N  0.28208313  0.33290996  0.28234643     0.76100
H448        H  0.33240456  0.36739626  0.32464144     0.10000
C449        C  0.39107756  0.38412825  0.36424478     0.03700
C450        C  0.41141392  0.40489487  0.39463303    -0.05000
C451        C  0.40810887  0.39986500  0.44070927    -0.23400
C452        C  0.38354022  0.37344370  0.45606161     0.13000
C453        C  0.36358625  0.35307204  0.42588266    -0.12500
N454        N  0.39531623  0.38981890  0.31757245     0.64600
H455        H  0.42989746  0.42483798  0.38214832     0.12500
N456        N  0.37793055  0.36694105  0.50234373     0.61300
H457        H  0.34478442  0.33340723  0.43849425     0.08700
O458        O  0.29384191  0.35699821  0.26158918    -0.40200
O459        O  0.25459363  0.31897694  0.28687359    -0.39400
O460        O  0.37907577  0.30724176  0.36776426    -0.39300
O461        O  0.34031248  0.27357133  0.40135220    -0.37100
O462        O  0.35931214  0.37140178  0.52155368    -0.38000
O463        O  0.38857943  0.35322587  0.52243766    -0.34100
O464        O  0.40072127  0.41442679  0.30229281    -0.35500
O465        O  0.39516745  0.37083991  0.29179578    -0.39800
C466        C  0.12789352  0.10399517  0.39952219    -0.13500
C467        C  0.12761127  0.13050684  0.39611765     0.16900
C468        C  0.10557011  0.13332505  0.41818552     0.03200
C469        C  0.08523139  0.11008014  0.44443191    -0.12000
C470        C  0.08681029  0.08428894  0.45055569    -0.03100
C471        C  0.10812127  0.08121817  0.42684199     0.02400
C472        C  0.15057617  0.15486387  0.36950251     0.09200
N473        N  0.10431400  0.16002021  0.41621488     0.65600
H474        H  0.06910923  0.11304379  0.46217271     0.18500
N475        N  0.10952688  0.05482215  0.42890817     0.76100
H476        H  0.14403728  0.10119046  0.38151132     0.10000
C477        C  0.18071382  0.16566453  0.37800638     0.03700
C478        C  0.20163074  0.18834428  0.35166868    -0.05000
C479        C  0.19336458  0.20137684  0.31794582    -0.23400
C480        C  0.16317672  0.19082403  0.30977405     0.13000
C481        C  0.14220622  0.16721117  0.33489815    -0.12500
N482        N  0.19049584  0.15436073  0.41374892     0.64600
H483        H  0.22464584  0.19612350  0.35795367     0.12500
N484        N  0.15343061  0.20445022  0.27757509     0.61300
H485        H  0.11913599  0.15893651  0.32828477     0.08700
O486        O  0.12577694  0.05229353  0.45758410    -0.40200
O487        O  0.09986531  0.03727510  0.39652135    -0.39400
O488        O  0.07984698  0.15891545  0.41314413    -0.39300
O489        O  0.12718467  0.18454808  0.42259583    -0.37100
O490        O  0.16569235  0.23210921  0.27540756    -0.38000
O491        O  0.13032573  0.18902239  0.25517938    -0.34100
O492        O  0.21202087  0.15039049  0.40835785    -0.35500
O493        O  0.17966077  0.15115282  0.45195791    -0.39800
C494        C  0.21599425  0.24512772  0.09892738    -0.13500
C495        C  0.23700082  0.24093710  0.07694570     0.17500
C496        C  0.25784151  0.23730177  0.10195088     0.03200
C497        C  0.25753485  0.23866552  0.14842170    -0.12000
C498        C  0.23707203  0.24371919  0.17028446    -0.03100
C499        C  0.21581019  0.24661952  0.14537181     0.02400
C500        C  0.23697767  0.24112079  0.02782592     0.09200
N501        N  0.27956614  0.23261601  0.08091317     0.65600
H502        H  0.27364964  0.23619548  0.16773799     0.18500
N503        N  0.19451944  0.25187697  0.16653074     0.76100
H504        H  0.20000786  0.24784645  0.07967732     0.10000
C505        C  0.23004561  0.21581613  0.00253664     0.03700
C506        C  0.23164260  0.21797833  0.95604060    -0.05000
C507        C  0.23922275  0.24453755  0.93420159    -0.23400
C508        C  0.24571154  0.26967754  0.95980564     0.13000
C509        C  0.24481742  0.26768191  0.00621921    -0.12500
N510        N  0.22116487  0.18790630  0.02330267     0.64600
H511        H  0.22673360  0.19868587  0.93665480     0.12500
N512        N  0.25228127  0.29705817  0.93944984     0.61300
H513        H  0.24991482  0.28697828  0.02577228     0.08700
O514        O  0.16844111  0.23945311  0.15215331    -0.40200
O515        O  0.20227440  0.27100315  0.19676278    -0.39400
O516        O  0.29299635  0.24735292  0.04717687    -0.39300
O517        O  0.28724496  0.21556342  0.09834997    -0.37100
O518        O  0.23634891  0.29751205  0.90820936    -0.38000
O519        O  0.27173310  0.32105415  0.95613535    -0.34100
O520        O  0.20485311  0.17997539  0.05692691    -0.35500
O521        O  0.22735218  0.16991804  0.00567734    -0.39800
C522        C  0.21859805  0.72276647  0.29263515     0.04000
C523        C  0.24298362  0.74715104  0.31232820    -0.12200
C524        C  0.26637866  0.76747284  0.28627379     0.01500
C525        C  0.26515065  0.76383027  0.24023121    -0.10700
C526        C  0.24083869  0.74006819  0.21980579     0.04000
C527        C  0.21782269  0.71937510  0.24618545    -0.10100
H528        H  0.24414604  0.74996458  0.34806318     0.09600
H529        H  0.28320608  0.77963812  0.22022198     0.07100
H530        H  0.19967899  0.70033177  0.23059685     0.06900
C531        C  0.22387315  0.71937242  0.81481840     0.04000
C532        C  0.22407366  0.71902359  0.86144733    -0.12200
C533        C  0.24732064  0.74143040  0.88577617     0.01500
C534        C  0.27074277  0.76442126  0.86310233    -0.10700
C535        C  0.27076140  0.76553436  0.81654727     0.04000
C536        C  0.24746462  0.74269645  0.79256511    -0.10100
H537        H  0.20582366  0.70143146  0.87897217     0.09600
H538        H  0.28885041  0.78165985  0.88175419     0.07100
H539        H  0.24793767  0.74290932  0.75661999     0.06900
C540        C  0.23956698  0.96831545  0.29201548     0.04000
C541        C  0.21528877  0.96809393  0.31123443    -0.12200
C542        C  0.19248320  0.96649782  0.28463018     0.01500
C543        C  0.19422724  0.96545141  0.23832235    -0.10700
C544        C  0.21874324  0.96645069  0.21862984     0.04000
C545        C  0.24131272  0.96782023  0.24557119    -0.10100
H546        H  0.21419186  0.96931773  0.34702923     0.09600
H547        H  0.17704450  0.96495850  0.21756612     0.07100
H548        H  0.26006524  0.96819177  0.23036700     0.06900
C549        C  0.24551248  0.97018512  0.81311382     0.04000
C550        C  0.22207298  0.97058463  0.79108406    -0.12200
C551        C  0.19974047  0.97136241  0.81511162     0.01500
C552        C  0.20095309  0.97164395  0.86165297    -0.10700
C553        C  0.22390694  0.97060062  0.88418905     0.04000
C554        C  0.24626932  0.97019912  0.85970468    -0.10100
H555        H  0.22123607  0.97036259  0.75512187     0.09600
H556        H  0.18358019  0.97186872  0.88035654     0.07100
H557        H  0.26438570  0.97009809  0.87695485     0.06900
C558        C  0.50910026  0.74578483  0.29022351     0.04000
C559        C  0.50776398  0.72125544  0.31135030    -0.12200
C560        C  0.50678040  0.69818019  0.28657392     0.01500
C561        C  0.50777858  0.70001142  0.24008871    -0.10700
C562        C  0.50941600  0.72454004  0.21849407     0.04000
C563        C  0.50970726  0.74712840  0.24369657    -0.10100
H564        H  0.50696386  0.71982439  0.34728463     0.09600
H565        H  0.50624905  0.68194166  0.22071334     0.07100
H566        H  0.50996425  0.76556565  0.22696996     0.06900
C567        C  0.50570784  0.74524681  0.81191129     0.04000
C568        C  0.50561301  0.74737363  0.85829227    -0.12200
C569        C  0.50549984  0.72541709  0.88508408     0.01500
C570        C  0.50662464  0.70184528  0.86537828    -0.10700
C571        C  0.50751468  0.69988506  0.81908254     0.04000
C572        C  0.50663166  0.72148494  0.79253297    -0.10100
H573        H  0.50465542  0.76556201  0.87348320     0.09600
H574        H  0.50703354  0.68515022  0.88617451     0.07100
H575        H  0.50642133  0.71971293  0.75668685     0.06900
O576        O  0.41821804  0.50151103  0.51286525    -0.87300
C577        C  0.07061693  0.56040319  0.61928406     1.12700
O578        O  0.45489153  0.97362179  0.55151690    -1.35100
O579        O  0.04823511  0.56565373  0.50654199    -0.88800
O580        O  0.39540989  0.94691877  0.50090956    -0.89500
O581        O  0.45504314  0.94351694  0.45637950    -0.78300
O582        O  0.48373730  0.53353433  0.51686427    -1.00400
C583        C  0.03900420  0.97642120  0.46731241     1.22800
O584        O  0.48829874  0.94593915  0.54968544    -1.35300
Mn585      Mn  0.48710282  0.97539047  0.59878939     1.82100
O586        O  0.01585657  0.97576868  0.45497038    -0.77400
O587        O  0.07339582  0.54184878  0.50436141    -0.86800
C588        C  0.04203054  0.97747926  0.62993825     1.13800
C589        C  0.06861250  0.56213812  0.49084546     1.08600
O590        O  0.45765245  0.94371709  0.64449931    -0.78300
O591        O  0.01507118  0.50570639  0.55492551    -1.32000
O592        O  0.43130506  0.91663373  0.59203905    -0.97500
C593        C  0.49154172  0.89271566  0.48552683     1.07300
Mn594      Mn  0.05666995  0.50874280  0.55343779     1.48600
O595        O  0.46671097  0.88655540  0.50106776    -0.86700
Mn596      Mn  0.41464875  0.93327475  0.55054321     1.49600
O597        O  0.41989258  0.99464729  0.60696081    -0.90600
C598        C  0.48320086  0.52976915  0.47688261     1.20500
C599        C  0.39968279  0.96926479  0.61879589     1.12500
Mn600      Mn  0.48539220  0.97548033  0.50179271     1.81000
O601        O  0.04548858  0.97796635  0.58996233    -0.95800
Mn602      Mn  0.45180900  0.51497553  0.56012278     1.49300
C603        C  0.39713838  0.97132174  0.49067452     1.09100
Mn604      Mn  0.02807336  0.94498237  0.54859618     1.49900
C605        C  0.49422888  0.89371121  0.61278465     1.12000
O606        O  0.43100078  0.91646688  0.50955272    -1.01600
O607        O  0.07489522  0.54043686  0.60358640    -0.91200
C608        C  0.43374561  0.91984017  0.46967759     1.23200
O609        O  0.04367594  0.97765943  0.50702782    -1.01900
O610        O  0.05010706  0.56462228  0.60536268    -0.89300
O611        O  0.01625514  0.91296535  0.59734158    -0.88900
O612        O  0.39543154  0.94573254  0.60015110    -0.89000
Mn613      Mn  0.01704652  0.54701348  0.55660560     1.47900
O614        O  0.01888884  0.97615407  0.64308044    -0.77400
C615        C  0.43484483  0.92089673  0.63189767     1.16300
O616        O  0.48263825  0.50686240  0.46355939    -0.76200
O617        O  0.48722730  0.50607769  0.65114514    -0.75800
Mn618      Mn  0.45110963  0.90330638  0.55080920     1.51100
O619        O  0.01443681  0.91294325  0.49961202    -0.88100
O620        O  0.48587171  0.53244449  0.59974978    -0.95700
O621        O  0.46858778  0.88782369  0.60043321    -0.90700
C622        C  0.48744178  0.52908320  0.63939620     1.14100
C623        C  0.52307628  0.65373590  0.73925154    -0.13500
C624        C  0.50113300  0.62527965  0.75073990     0.16900
C625        C  0.48311564  0.62132443  0.78747718     0.03200
C626        C  0.48678097  0.64595631  0.81095938    -0.12000
C627        C  0.50786830  0.67454606  0.79816772    -0.03100
C628        C  0.02431993  0.67625980  0.76491651     0.02400
C629        C  0.49703907  0.60021430  0.72299005     0.09200
N630        N  0.45968534  0.59276929  0.79933673     0.65600
H631        H  0.47185032  0.64283269  0.83758494     0.18500
N632        N  0.04802255  0.70520250  0.75497015     0.76100
H633        H  0.03691216  0.65577790  0.71497439     0.10000
C634        C  0.49089799  0.59935204  0.67725135     0.03700
C635        C  0.48804042  0.57593746  0.65165030    -0.05000
C636        C  0.49051095  0.55259650  0.67036964    -0.23400
C637        C  0.49695223  0.55365478  0.71641613     0.13000
C638        C  0.50035046  0.57758198  0.74198863    -0.12500
N639        N  0.48692235  0.62177306  0.65633087     0.64600
H640        H  0.48309324  0.57579234  0.61669333     0.12500
N641        N  0.49984721  0.53089215  0.73813260     0.61300
H642        H  0.50534191  0.57842201  0.77706719     0.08700
O643        O  0.05660084  0.71215860  0.71549530    -0.40200
O644        O  0.06217422  0.72296641  0.78595881    -0.39400
O645        O  0.45547824  0.58509423  0.83957940    -0.39300
O646        O  0.44076036  0.57698887  0.77058899    -0.37100
O647        O  0.49642546  0.02035332  0.76293204    -0.38000
O648        O  0.52017633  0.53773358  0.76628873    -0.34100
O649        O  0.49797342  0.63167146  0.61879392    -0.35500
O650        O  0.47028036  0.62986558  0.67336672    -0.39800
C651        C  0.48130307  0.78116952  0.72480860    -0.13500
C652        C  0.50309716  0.81073635  0.72912493     0.16900
C653        C  0.02292154  0.81568370  0.76098148     0.03200
C654        C  0.02254347  0.79361140  0.78794910    -0.12000
C655        C  0.50415964  0.76750397  0.78356219    -0.03100
C656        C  0.48149908  0.75947282  0.75174639     0.02400
C657        C  0.50169944  0.83252444  0.69948618     0.09200
N658        N  0.04652665  0.84546842  0.76594484     0.65600
H659        H  0.04008995  0.79926316  0.81183547     0.18500
N660        N  0.45827848  0.72957590  0.74698743     0.76100
H661        H  0.46387520  0.77499771  0.70050520     0.10000
C662        C  0.52291486  0.84763003  0.66648084     0.03700
C663        C  0.52067996  0.86854111  0.64013436    -0.05000
C664        C  0.49751762  0.87431391  0.64539344    -0.23400
C665        C  0.47695548  0.85972775  0.67918833     0.13000
C666        C  0.47894430  0.83869281  0.70540323    -0.12500
N667        N  0.54615386  0.84139840  0.65830556     0.64600
H668        H  0.53641691  0.87938324  0.61388088     0.12500
N669        N  0.45524404  0.86752550  0.68916081     0.61300
H670        H  0.95956365  0.82443903  0.72985554     0.08700
O671        O  0.44960529  0.71862773  0.70880150    -0.40200
O672        O  0.44471659  0.71486928  0.78067518    -0.39400
O673        O  0.04156093  0.86663488  0.76491415    -0.39300
O674        O  0.07212826  0.85055694  0.77489492    -0.37100
O675        O  0.42922796  0.84780416  0.69673864    -0.38000
O676        O  0.95907197  0.89009251  0.69784910    -0.34100
O677        O  0.54137952  0.81533694  0.65994312    -0.35500
O678        O  0.57073686  0.86150370  0.64495639    -0.39800
C679        C  0.01292652  0.63210905  0.32803606    -0.13500
C680        C  0.49036272  0.61945540  0.35568189     0.16900
C681        C  0.47105921  0.63075826  0.35949160     0.03200
C682        C  0.47736251  0.65661614  0.33694561    -0.12000
C683        C  0.50193155  0.67110084  0.30953639    -0.03100
C684        C  0.01921776  0.65804749  0.30541255     0.02400
C685        C  0.48767830  0.59548824  0.38530249     0.09200
N686        N  0.44495060  0.61621008  0.38583325     0.65600
H687        H  0.46259738  0.66524798  0.34007221     0.18500
N688        N  0.04535982  0.67272844  0.27924200     0.76100
H689        H  0.02804338  0.62384292  0.32586059     0.10000
C690        C  0.98458165  0.56816769  0.36888473     0.03700
C691        C  0.98389504  0.54730193  0.39904913    -0.05000
C692        C  0.48441497  0.55238855  0.44565421    -0.23400
C693        C  0.48449562  0.57785200  0.46119177     0.13000
C694        C  0.48649699  0.59906474  0.43119099    -0.12500
N695        N  0.98365386  0.56269125  0.32205692     0.64600
H696        H  0.98297931  0.52760917  0.38629190     0.12500
N697        N  0.48269975  0.58276508  0.50742736     0.61300
H698        H  0.48718544  0.61865254  0.44397939     0.08700
O699        O  0.05421673  0.65793720  0.25817835    -0.40200
O700        O  0.06140465  0.70033050  0.28102876    -0.39400
O701        O  0.43571615  0.63103249  0.40589988    -0.39300
O702        O  0.42962882  0.58850820  0.38599375    -0.37100
O703        O  0.50577241  0.59906572  0.52931484    -0.38000
O704        O  0.45801642  0.57431730  0.52469348    -0.34100
O705        O  0.99770417  0.55116534  0.30634352    -0.35500
O706        O  0.96698800  0.56714938  0.29678396    -0.39800
C707        C  0.47270707  0.83161438  0.40037294    -0.13500
C708        C  0.49990700  0.83306641  0.39595861     0.16900
C709        C  0.02293409  0.85391199  0.41783222     0.03200
C710        C  0.01994197  0.87386947  0.44501476    -0.12000
C711        C  0.49368689  0.87295026  0.45207724    -0.03100
C712        C  0.46917862  0.85063503  0.42892085     0.02400
C713        C  0.50186084  0.81055655  0.36853626     0.09200
N714        N  0.05113233  0.85598675  0.41501282     0.65600
H715        H  0.03925687  0.89055000  0.46217767     0.18500
N716        N  0.44048663  0.84670054  0.43370190     0.76100
H717        H  0.45374070  0.81483267  0.38263947     0.10000
C718        C  0.48303049  0.78012234  0.37567924     0.03700
C719        C  0.48573866  0.75974415  0.34922123    -0.05000
C720        C  0.50755798  0.76877029  0.31683262    -0.23400
C721        C  0.02433603  0.79750599  0.30920167     0.13000
C722        C  0.02070796  0.81798987  0.33419990    -0.12500
N723        N  0.46158363  0.76944220  0.41030195     0.64600
H724        H  0.47090503  0.73652127  0.35454482     0.12500
N725        N  0.04826239  0.80798167  0.27859731     0.61300
H726        H  0.03520712  0.84123560  0.32855636     0.08700
O727        O  0.42574860  0.83365567  0.46757809    -0.40200
O728        O  0.42737021  0.84859817  0.39970819    -0.39400
O729        O  0.07401519  0.88084399  0.41199225    -0.39300
O730        O  0.05357544  0.83347719  0.42088225    -0.37100
O731        O  0.05578596  0.83116180  0.25661736    -0.38000
O732        O  0.06415255  0.79626212  0.27747155    -0.34100
O733        O  0.43641581  0.74760695  0.40326361    -0.35500
O734        O  0.46868687  0.77960943  0.44920309    -0.39800
C735        C  0.48226468  0.70528132  0.00469798    -0.13500
C736        C  0.50525617  0.72906813  0.02720107     0.16900
C737        C  0.52776953  0.75216662  0.00286991     0.03200
C738        C  0.52708940  0.75084759  0.95640188    -0.12000
C739        C  0.50420806  0.72697438  0.93384811    -0.03100
C740        C  0.48139336  0.70409751  0.95821491     0.02400
C741        C  0.50637097  0.72848382  0.07617461     0.09200
N742        N  0.04699626  0.77264729  0.02492728     0.65600
H743        H  0.03932511  0.76422397  0.93782046     0.18500
N744        N  0.45722142  0.67973012  0.93621938     0.76100
H745        H  0.46498797  0.68754654  0.02343135     0.10000
C746        C  0.48565183  0.73101118  0.10217126     0.03700
C747        C  0.48709391  0.72957459  0.14848470    -0.05000
C748        C  0.50902087  0.72591259  0.16942858    -0.23400
C749        C  0.02651952  0.71984905  0.14337505     0.13000
C750        C  0.02421306  0.72031581  0.09701453    -0.12500
N751        N  0.46334227  0.73541279  0.08205351     0.64600
H752        H  0.47108168  0.73149260  0.16832332     0.12500
N753        N  0.04991127  0.71690318  0.16291014     0.61300
H754        H  0.03987838  0.71814614  0.07666707     0.08700
O755        O  0.44859874  0.65380245  0.94915161    -0.40200
O756        O  0.44316135  0.68415258  0.90586221    -0.39400
O757        O  0.07287252  0.78275499  0.01132548    -0.39300
O758        O  0.04205717  0.78584640  0.05565332    -0.37100
O759        O  0.05661515  0.69887341  0.14688642    -0.38000
O760        O  0.06573564  0.73422570  0.19330940    -0.34100
O761        O  0.43702138  0.72004615  0.09403444    -0.35500
O762        O  0.47019476  0.75620826  0.05496915    -0.39800
C763        C  0.30491489  0.98712952  0.72825597    -0.13500
C764        C  0.31227479  0.96544193  0.73789620     0.16900
C765        C  0.29802815  0.94552368  0.77305021     0.03200
C766        C  0.27634492  0.94759305  0.79703317    -0.12000
C767        C  0.26908230  0.96944083  0.78745402    -0.03100
C768        C  0.28382065  0.98962684  0.75283081     0.02400
C769        C  0.33488420  0.96443016  0.71014622     0.09200
N770        N  0.30536701  0.92339316  0.78501387     0.65600
H771        H  0.26511018  0.93211373  0.82356333     0.18500
N772        N  0.26953468  0.50983944  0.74388137     0.76100
H773        H  0.31093825  0.50408447  0.70418457     0.10000
C774        C  0.32872391  0.94011791  0.68281003     0.03700
C775        C  0.35090608  0.94151697  0.65553349    -0.05000
C776        C  0.37888065  0.96684954  0.65400425    -0.23400
C777        C  0.38511881  0.99032836  0.68314301     0.13000
C778        C  0.36314897  0.98901372  0.71039387    -0.12500
N779        N  0.29995766  0.91452964  0.68072584     0.64600
H780        H  0.34562190  0.92326968  0.63342790     0.12500
N781        N  0.41395474  0.01512703  0.68698483     0.61300
H782        H  0.36823525  0.00735593  0.73223600     0.08700
O783        O  0.26664885  0.51419620  0.70335132    -0.40200
O784        O  0.26674791  0.52557042  0.77285083    -0.39400
O785        O  0.33167212  0.92909859  0.78460920    -0.39300
O786        O  0.28588320  0.89883163  0.79968204    -0.37100
O787        O  0.43358702  0.01205807  0.70640695    -0.38000
O788        O  0.41807131  0.04063604  0.68009238    -0.34100
O789        O  0.27738095  0.91713663  0.68031513    -0.35500
O790        O  0.29710470  0.88943592  0.67472983    -0.39800
C791        C  0.13843254  0.95524836  0.73256796    -0.13500
C792        C  0.13325534  0.97853257  0.74100033     0.16900
C793        C  0.14871473  0.99842368  0.77580443     0.03200
C794        C  0.17711020  0.49110130  0.76854113    -0.12000
C795        C  0.17526544  0.97210307  0.79138410    -0.03100
C796        C  0.15905580  0.95164809  0.75747678     0.02400
C797        C  0.11106275  0.98093365  0.71329906     0.09200
N798        N  0.16260438  0.51803998  0.71773898     0.65600
H799        H  0.19968197  0.50842598  0.76485649     0.18500
N800        N  0.16269815  0.92676509  0.74869873     0.76100
H801        H  0.12594187  0.93948763  0.70675546     0.10000
C802        C  0.11392557  0.98368905  0.66679747     0.03700
C803        C  0.09097027  0.98225176  0.64108230    -0.05000
C804        C  0.06493259  0.97822571  0.66035075    -0.23400
C805        C  0.06508021  0.48437724  0.70902552     0.13000
C806        C  0.08653858  0.48363201  0.73621913    -0.12500
N807        N  0.14014062  0.98836073  0.64518036     0.64600
H808        H  0.09383170  0.98476112  0.60557455     0.12500
N809        N  0.04973671  0.49843116  0.72514415     0.61300
H810        H  0.09088328  0.49339593  0.76901768     0.08700
O811        O  0.16487113  0.91212608  0.78038220    -0.40200
O812        O  0.16087881  0.91762841  0.70943167    -0.39400
O813        O  0.16217346  0.54007243  0.73342797    -0.39300
O814        O  0.17330637  0.51961634  0.67986264    -0.37100
O815        O  0.02454393  0.48309696  0.74143237    -0.38000
O816        O  0.06313662  0.52598836  0.72993356    -0.34100
O817        O  0.13853788  0.97654062  0.60804343    -0.35500
O818        O  0.16503766  0.00631851  0.66112627    -0.39800
C819        C  0.33716508  0.95012552  0.40203057    -0.13500
C820        C  0.33272463  0.97426216  0.40343248     0.16900
C821        C  0.35025598  0.99799802  0.43212322     0.03200
C822        C  0.37166251  0.99673267  0.45881728    -0.12000
C823        C  0.37562103  0.97204421  0.45861945    -0.03100
C824        C  0.35814954  0.94868551  0.42919412     0.02400
C825        C  0.30944109  0.97366819  0.37453891     0.09200
N826        N  0.34736120  0.53075128  0.44600171     0.65600
H827        H  0.38444839  0.01477483  0.48135412     0.18500
N828        N  0.36158089  0.92350351  0.42537728     0.76100
H829        H  0.32398148  0.93201641  0.37969087     0.10000
C830        C  0.31562127  0.99391095  0.33950538     0.03700
C831        C  0.29238373  0.99167764  0.31318596    -0.05000
C832        C  0.26329823  0.96947562  0.32050400    -0.23400
C833        C  0.25726494  0.94926478  0.35551110     0.13000
C834        C  0.28035283  0.95180033  0.38225389    -0.12500
N835        N  0.34413688  0.52726311  0.34201030     0.64600
H836        H  0.29702839  0.00724764  0.28649363     0.12500
N837        N  0.22807849  0.92555343  0.36353303     0.61300
H838        H  0.27566787  0.93618529  0.40890738     0.08700
O839        O  0.34943496  0.90313372  0.45348881    -0.40200
O840        O  0.36840252  0.91784914  0.38816678    -0.39400
O841        O  0.32197739  0.52762467  0.44535269    -0.39300
O842        O  0.36900629  0.55569169  0.45509698    -0.37100
O843        O  0.21223085  0.90988429  0.33173802    -0.38000
O844        O  0.21918325  0.91833057  0.40282253    -0.34100
O845        O  0.36614253  0.52370421  0.34315391    -0.35500
O846        O  0.34746041  0.55176473  0.32976391    -0.39800
C847        C  0.11641936  0.95078521  0.31892064    -0.13500
C848        C  0.12380552  0.97472584  0.34727668     0.16900
C849        C  0.15362754  0.99621398  0.35324445     0.03200
C850        C  0.17533039  0.99265763  0.33274765    -0.12000
C851        C  0.16812896  0.96840299  0.30545386    -0.03100
C852        C  0.13827096  0.94732522  0.29790594     0.02400
C853        C  0.10100729  0.97461396  0.37614981     0.09200
N854        N  0.16218737  0.02184067  0.37996213     0.65600
H855        H  0.19811373  0.00928760  0.33759163     0.18500
N856        N  0.12982756  0.92162908  0.27122458     0.76100
H857        H  0.09365793  0.93387134  0.31514745     0.10000
C858        C  0.07508561  0.97330123  0.35964393     0.03700
C859        C  0.05458491  0.97296021  0.38987721    -0.05000
C860        C  0.05968904  0.97441330  0.43602829    -0.23400
C861        C  0.08514596  0.97441613  0.45189558     0.13000
C862        C  0.10523832  0.97454308  0.42206924    -0.12500
N863        N  0.06180958  0.46226706  0.31844779     0.64600
H864        H  0.03156921  0.46995369  0.38215293     0.12500
N865        N  0.09109819  0.97412254  0.49830418     0.61300
H866        H  0.12443743  0.97440106  0.43506862     0.08700
O867        O  0.10707515  0.91135735  0.24709663    -0.40200
O868        O  0.14322132  0.90738865  0.27514033    -0.39400
O869        O  0.18366256  0.03074895  0.40653159    -0.39300
O870        O  0.15090115  0.03775419  0.37272469    -0.37100
O871        O  0.11218108  0.99651950  0.51613090    -0.38000
O872        O  0.07912582  0.95006369  0.51911264    -0.34100
O873        O  0.06637275  0.44466627  0.29610953    -0.35500
O874        O  0.04772165  0.47335897  0.30074586    -0.39800
C875        C  0.22702420  0.94784582  0.00338991    -0.13500
C876        C  0.22356141  0.96882389  0.02710860     0.16900
C877        C  0.22109696  0.99087925  0.00382858     0.03200
C878        C  0.22171042  0.99123253  0.95731090    -0.12000
C879        C  0.22426053  0.96971213  0.93340413    -0.03100
C880        C  0.22708333  0.94781439  0.95681933     0.02400
C881        C  0.22272801  0.96746400  0.07623158     0.09200
N882        N  0.21719601  0.01253777  0.02686359     0.65600
H883        H  0.21971019  0.00816478  0.93962594     0.18500
N884        N  0.22901073  0.92488032  0.93400188     0.76100
H885        H  0.22900836  0.93097263  0.02128028     0.10000
C886        C  0.20006217  0.94322844  0.09859503     0.03700
C887        C  0.19937555  0.94307473  0.14508463    -0.05000
C888        C  0.22094193  0.96676755  0.16973294    -0.23400
C889        C  0.24407514  0.99059511  0.14740487     0.13000
C890        C  0.24485855  0.99068887  0.10092905    -0.12500
N891        N  0.17721560  0.91904385  0.07449783     0.64600
H892        H  0.18166456  0.92461001  0.16206408     0.12500
N893        N  0.26373472  0.51979751  0.17560658     0.61300
H894        H  0.26022431  0.51195261  0.08843899     0.08700
O895        O  0.21101906  0.91053675  0.90330699    -0.40200
O896        O  0.24683598  0.91698840  0.94736594    -0.39400
O897        O  0.23200489  0.03927781  0.01606815    -0.39300
O898        O  0.19724656  0.00475306  0.05535789    -0.37100
O899        O  0.29078750  0.52844014  0.17422976    -0.38000
O900        O  0.25505360  0.53536307  0.19480798    -0.34100
O901        O  0.17231932  0.89326086  0.08141859    -0.35500
O902        O  0.16072534  0.92315527  0.04833483    -0.39800
C903        C  0.39009019  0.88144928  0.73544806    -0.13500
C904        C  0.36819080  0.85498952  0.71659288     0.16900
C905        C  0.36816085  0.85067969  0.67045451     0.03200
C906        C  0.38985088  0.87271193  0.64424608    -0.12000
C907        C  0.41202194  0.89934783  0.66264141    -0.03100
C908        C  0.41166305  0.90389821  0.70896398     0.02400
C909        C  0.34375459  0.83319716  0.74440850     0.09200
N910        N  0.34648691  0.82383909  0.64973457     0.65600
H911        H  0.38960724  0.86854522  0.60909632     0.18500
N912        N  0.43227947  0.93120274  0.72954873     0.76100
H913        H  0.38964137  0.88514233  0.77067856     0.10000
C914        C  0.34831729  0.81771653  0.77901366     0.03700
C915        C  0.32431807  0.79649776  0.80299663    -0.05000
C916        C  0.29563085  0.79020319  0.79306484    -0.23400
C917        C  0.29117011  0.80671630  0.75979436     0.13000
C918        C  0.31523141  0.82772346  0.73552795    -0.12500
N919        N  0.37684352  0.82189426  0.78835748     0.64600
H920        H  0.32797536  0.78393000  0.82828669     0.12500
N921        N  0.26271383  0.80333330  0.75157701     0.61300
H922        H  0.31180571  0.84025519  0.70990888     0.08700
O923        O  0.44428031  0.93113918  0.76601806    -0.40200
O924        O  0.43441436  0.95492644  0.71578205    -0.39400
O925        O  0.33506117  0.82454555  0.61302674    -0.39300
O926        O  0.34045041  0.79930986  0.66616533    -0.37100
O927        O  0.25530422  0.80640376  0.71280028    -0.38000
O928        O  0.24664424  0.80138330  0.78373071    -0.34100
O929        O  0.38663193  0.82675881  0.82769321    -0.35500
O930        O  0.38944587  0.81486830  0.75950924    -0.39800
C931        C  0.13756282  0.60330547  0.69465638    -0.13500
C932        C  0.13029877  0.62232264  0.71646017     0.16900
C933        C  0.10256471  0.61953764  0.70852029     0.03200
C934        C  0.08327943  0.59884926  0.67754128    -0.12000
C935        C  0.09081182  0.58029864  0.65452137    -0.03100
C936        C  0.11818027  0.58235592  0.66417607     0.02400
C937        C  0.15307211  0.64678142  0.74376119     0.09200
N938        N  0.09376683  0.63768249  0.73148973     0.65600
H939        H  0.06226384  0.59735177  0.67152429     0.18500
N940        N  0.12746628  0.56455716  0.64160283     0.76100
H941        H  0.15889989  0.60543880  0.70014409     0.10000
C942        C  0.16727018  0.64166411  0.77985158     0.03700
C943        C  0.19037359  0.66568486  0.80202831    -0.05000
C944        C  0.19923536  0.69484185  0.78985841    -0.23400
C945        C  0.18456330  0.69986185  0.75419382     0.13000
C946        C  0.16208609  0.67583211  0.73120107    -0.12500
N947        N  0.15824369  0.61234742  0.79476377     0.64600
H948        H  0.20139852  0.66155874  0.82927364     0.12500
N949        N  0.19136434  0.72902218  0.74189792     0.61300
H950        H  0.15132495  0.67983525  0.70344265     0.08700
O951        O  0.12292287  0.54065954  0.65860196    -0.40200
O952        O  0.14290243  0.57417167  0.60720572    -0.39400
O953        O  0.08300531  0.65083796  0.71014332    -0.39300
O954        O  0.09530506  0.63939310  0.77332305    -0.37100
O955        O  0.19186366  0.73566536  0.70145728    -0.38000
O956        O  0.19283979  0.74681775  0.77124840    -0.34100
O957        O  0.17709150  0.60579043  0.80798372    -0.35500
O958        O  0.13135429  0.59363166  0.79830859    -0.39800
C959        C  0.31790808  0.83645333  0.35085882    -0.13500
C960        C  0.34331032  0.83411923  0.35327545     0.16900
C961        C  0.34371601  0.81050111  0.33182663     0.03200
C962        C  0.31876851  0.78964948  0.30849520    -0.12000
C963        C  0.29308812  0.79149416  0.30732867    -0.03100
C964        C  0.29289197  0.81538653  0.32799955     0.02400
C965        C  0.36803407  0.85514939  0.38162278     0.09200
N966        N  0.36841013  0.80622164  0.33616333     0.65600
H967        H  0.31892529  0.77112127  0.29304717     0.18500
N968        N  0.26751810  0.81860109  0.32558537     0.76100
H969        H  0.31743119  0.85453826  0.36728631     0.10000
C970        C  0.39347994  0.87918499  0.36408561     0.03700
C971        C  0.41514187  0.89983283  0.39296793    -0.05000
C972        C  0.41178420  0.89678772  0.43934930    -0.23400
C973        C  0.38671123  0.87158512  0.45641543     0.13000
C974        C  0.36525104  0.85136243  0.42754502    -0.12500
N975        N  0.39702686  0.88347868  0.31719413     0.64600
H976        H  0.43421784  0.91861047  0.37905105     0.12500
N977        N  0.38211203  0.86639537  0.50308093     0.61300
H978        H  0.34589997  0.83270676  0.44118835     0.08700
O979        O  0.26179103  0.82788336  0.29032486    -0.40200
O980        O  0.25253415  0.81501528  0.35988141    -0.39400
O981        O  0.38031847  0.80332520  0.30187087    -0.39300
O982        O  0.37447991  0.79959515  0.37355640    -0.37100
O983        O  0.36780279  0.87588564  0.52380668    -0.38000
O984        O  0.38791440  0.84832523  0.52175884    -0.34100
O985        O  0.38285289  0.89320200  0.29602180    -0.35500
O986        O  0.41642837  0.88039993  0.29770230    -0.39800
C987        C  0.13169828  0.60490384  0.41001408    -0.13500
C988        C  0.12954155  0.63013128  0.40223085     0.16900
C989        C  0.10561322  0.63160581  0.42040351     0.03200
C990        C  0.08516540  0.60832604  0.44675098    -0.12000
C991        C  0.08838010  0.58384197  0.45702888    -0.03100
C992        C  0.11186360  0.58222514  0.43751271     0.02400
C993        C  0.15246710  0.65440897  0.37494214     0.09200
N994        N  0.10244792  0.65705715  0.41443959     0.65600
H995        H  0.06746500  0.61027500  0.46119565     0.18500
N996        N  0.11611753  0.55778602  0.44514072     0.76100
H997        H  0.14935795  0.60301820  0.39523230     0.10000
C998        C  0.18269501  0.66682019  0.38497158     0.03700
C999        C  0.20353116  0.68885192  0.35751168    -0.05000
C1000       C  0.19516670  0.69978515  0.32094184    -0.23400
C1001       C  0.16489366  0.68774706  0.31135064     0.13000
C1002       C  0.14404628  0.66475785  0.33770971    -0.12500
N1003       N  0.19266463  0.65775313  0.42326328     0.64600
H1004       H  0.22658215  0.69771440  0.36506651     0.12500
N1005       N  0.15487577  0.69938929  0.27644530     0.61300
H1006       H  0.12097725  0.65534015  0.32975363     0.08700
O1007       O  0.13600504  0.56042291  0.47165419    -0.40200
O1008       O  0.10483757  0.53643711  0.41845495    -0.39400
O1009       O  0.07731094  0.65407940  0.40872763    -0.39300
O1010       O  0.12418516  0.68251510  0.41994537    -0.37100
O1011       O  0.16577749  0.72682723  0.27253412    -0.38000
O1012       O  0.13246632  0.68244431  0.25366078    -0.34100
O1013       O  0.21507524  0.65495316  0.42084263    -0.35500
O1014       O  0.18093438  0.65534361  0.46055521    -0.39800
C1015       C  0.21837164  0.73336968  0.09799605    -0.13500
C1016       C  0.24319051  0.73566132  0.07746237     0.17500
C1017       C  0.26644180  0.73759820  0.10373157     0.03200
C1018       C  0.26452803  0.73783894  0.15012082    -0.12000
C1019       C  0.24026631  0.73689475  0.17082682    -0.03100
C1020       C  0.21670860  0.73422303  0.14435129     0.02400
C1021       C  0.24448214  0.73673386  0.02846478     0.09200
N1022       N  0.29239202  0.74023220  0.08401605     0.65600
H1023       H  0.28255750  0.73971702  0.17026162     0.18500
N1024       N  0.19181222  0.73405780  0.16362504     0.76100
H1025       H  0.20060225  0.73193971  0.07766514     0.10000
C1026       C  0.24119214  0.71275650  0.00309014     0.03700
C1027       C  0.24263179  0.71501902  0.95666513    -0.05000
C1028       C  0.24689109  0.74061949  0.93501607    -0.23400
C1029       C  0.25059193  0.76480013  0.96068993     0.13000
C1030       C  0.24951041  0.76257361  0.00711324    -0.12500
N1031       N  0.23596922  0.68595116  0.02388195     0.64600
H1032       H  0.24000957  0.69650726  0.93724953     0.12500
N1033       N  0.25453388  0.79132614  0.94038122     0.61300
H1034       H  0.25209877  0.78097158  0.02680564     0.08700
O1035       O  0.16640617  0.71708891  0.14838575    -0.40200
O1036       O  0.19550362  0.75368895  0.19119910    -0.39400
O1037       O  0.30454939  0.75767267  0.05208398    -0.39300
O1038       O  0.30500608  0.72755331  0.10152750    -0.37100
O1039       O  0.23812207  0.79012689  0.90863765    -0.38000
O1040       O  0.27229897  0.81599315  0.95719731    -0.34100
O1041       O  0.21603575  0.67363741  0.05239631    -0.35500
O1042       O  0.24954745  0.67320446  0.01105658    -0.39800
C1043       C  0.71425999  0.22864992  0.29199922     0.04000
C1044       C  0.73910894  0.25146803  0.31321505    -0.12200
C1045       C  0.76211376  0.27324776  0.28833374     0.01500
C1046       C  0.76031772  0.27225518  0.24190897    -0.10700
C1047       C  0.73574563  0.24956784  0.22033611     0.04000
C1048       C  0.71281065  0.22783022  0.24538354    -0.10100
H1049       H  0.74071572  0.25219089  0.34915409     0.09600
H1050       H  0.77830905  0.28875572  0.22256451     0.07100
H1051       H  0.69432945  0.20981112  0.22851699     0.06900
C1052       C  0.71896302  0.22412993  0.81414608     0.04000
C1053       C  0.71745700  0.22399616  0.86071264    -0.12200
C1054       C  0.74040598  0.24592530  0.88627932     0.01500
C1055       C  0.76529167  0.26797034  0.86477074    -0.10700
C1056       C  0.76667753  0.26898941  0.81834500     0.04000
C1057       C  0.74369314  0.24685491  0.79319186    -0.10100
H1058       H  0.69816957  0.20693907  0.87707948     0.09600
H1059       H  0.78339067  0.28469773  0.88408626     0.07100
H1060       H  0.74529884  0.24717218  0.75734132     0.06900
C1061       C  0.73863763  0.47256352  0.29814917     0.04000
C1062       C  0.71296763  0.47005484  0.31635315    -0.12200
C1063       C  0.68981705  0.46680301  0.28874546     0.01500
C1064       C  0.69268236  0.46665030  0.24258951    -0.10700
C1065       C  0.71833057  0.46975315  0.22387108     0.04000
C1066       C  0.74125445  0.47275923  0.25167274    -0.10100
H1067       H  0.71106147  0.47083536  0.35204355     0.09600
H1068       H  0.67495983  0.46427315  0.22112645     0.07100
H1069       H  0.76081379  0.47456173  0.23707725     0.06900
C1070       C  0.74221344  0.46778329  0.81782009     0.04000
C1071       C  0.71784738  0.46622673  0.79566248    -0.12200
C1072       C  0.69494782  0.46588050  0.81951196     0.01500
C1073       C  0.69589005  0.46606610  0.86607651    -0.10700
C1074       C  0.71970964  0.46686004  0.88883777     0.04000
C1075       C  0.74286177  0.46794156  0.86449933    -0.10100
H1076       H  0.71672277  0.46549754  0.75970910     0.09600
H1077       H  0.67817654  0.46575570  0.88455189     0.07100
H1078       H  0.76167936  0.46950211  0.88198651     0.06900
C1079       C  0.99618744  0.23985084  0.28989601     0.04000
C1080       C  0.99398632  0.21484317  0.31075049    -0.12200
C1081       C  0.99480691  0.19277561  0.28584551     0.01500
C1082       C  0.99763277  0.19556904  0.23963136    -0.10700
C1083       C  0.99989316  0.22040506  0.21808545     0.04000
C1084       C  0.99884019  0.24231079  0.24344668    -0.10100
H1085       H  0.99186660  0.21260780  0.34652515     0.09600
H1086       H  0.99747201  0.17808237  0.22041524     0.07100
H1087       H  0.00004001  0.26126907  0.22700965     0.06900
C1088       C  0.00007475  0.23995269  0.81057679     0.04000
C1089       C  0.99952555  0.24136324  0.85707988    -0.12200
C1090       C  0.00162089  0.22039208  0.88352716     0.01500
C1091       C  0.00516616  0.19835221  0.86314792    -0.10700
C1092       C  0.00585247  0.19661568  0.81676265     0.04000
C1093       C  0.00337668  0.21758723  0.79073072    -0.10100
H1094       H  0.99656947  0.25826419  0.87269107     0.09600
H1095       H  0.00722425  0.18237970  0.88351013     0.07100
H1096       H  0.00354068  0.21623442  0.75490480     0.06900
O1097       O  0.91659176  0.99576448  0.50690827    -0.87300
C1098       C  0.57049953  0.06437399  0.61226835     1.12700
O1099       O  0.95392375  0.47459200  0.55600605    -1.35100
O1100       O  0.54582065  0.06639027  0.49975746    -0.88800
O1101       O  0.89434151  0.45055365  0.50702317    -0.89500
O1102       O  0.95275807  0.44506309  0.46049402    -0.78300
O1103       O  0.98203742  0.03046896  0.51015248    -1.00400
C1104       C  0.53644851  0.47663615  0.47185784     1.22800
O1105       O  0.98494284  0.44435618  0.55345394    -1.35300
Mn1106     Mn  0.98528075  0.47446304  0.60306476     1.82100
O1107       O  0.51341167  0.47630317  0.45978766    -0.77400
O1108       O  0.57324183  0.04492094  0.49829766    -0.86800
C1109       C  0.53898871  0.47441783  0.63447760     1.13800
C1110       C  0.56690415  0.06403612  0.48431827     1.08600
O1111       O  0.95515712  0.44332744  0.64808543    -0.78300
O1112       O  0.51575493  0.00712890  0.54981509    -1.32000
O1113       O  0.92817210  0.41655368  0.59553227    -0.97500
C1114       C  0.98559411  0.39021206  0.48726087     1.07300
Mn1115     Mn  0.55821743  0.01239880  0.54798715     1.48600
O1116       O  0.96086256  0.38516687  0.50195833    -0.86700
Mn1117     Mn  0.91276684  0.43524418  0.55527545     1.49600
O1118       O  0.92007185  0.49769769  0.61024938    -0.90600
C1119       C  0.98154562  0.02656323  0.47023331     1.20500
C1120       C  0.89961235  0.47271783  0.62303305     1.12500
Mn1121     Mn  0.98392557  0.47533498  0.50639656     1.81000
O1122       O  0.54329436  0.47545330  0.59458620    -0.95800
Mn1123     Mn  0.95063616  0.01117285  0.55386349     1.49300
C1124       C  0.89731873  0.47527356  0.49558012     1.09100
Mn1125     Mn  0.52436956  0.44333273  0.55143774     1.49900
C1126       C  0.98692441  0.38883625  0.61370562     1.12000
O1127       O  0.92754356  0.41778933  0.51279499    -1.01600
O1128       O  0.57537548  0.04458541  0.59758496    -0.91200
C1129       C  0.93049816  0.42197364  0.47305624     1.23200
O1130       O  0.54072369  0.47679697  0.51152488    -1.01900
O1131       O  0.54928213  0.06736143  0.59810806    -0.89300
O1132       O  0.51161879  0.40983566  0.59806088    -0.88900
O1133       O  0.89508994  0.44869100  0.60582555    -0.89000
Mn1134     Mn  0.51563604  0.04751070  0.55048935     1.47900
O1135       O  0.51660557  0.47475729  0.64729549    -0.77400
C1136       C  0.93254766  0.42040237  0.63539725     1.16300
O1137       O  0.98294909  0.00459852  0.45716610    -0.76200
O1138       O  0.98695613  0.00485691  0.64497036    -0.75800
Mn1139     Mn  0.94640609  0.40250174  0.55282754     1.51100
O1140       O  0.50959513  0.41227865  0.50075383    -0.88100
O1141       O  0.98502574  0.03083685  0.59315765    -0.95700
O1142       O  0.96187793  0.38445180  0.60121590    -0.90700
C1143       C  0.98737851  0.02789672  0.63276412     1.14100
C1144       C  0.02172972  0.15159385  0.73462487    -0.13500
C1145       C  0.00091888  0.12282317  0.74702966     0.16900
C1146       C  0.98379116  0.11835927  0.78510157     0.03200
C1147       C  0.98709307  0.14283453  0.80890534    -0.12000
C1148       C  0.00699853  0.17171716  0.79527958    -0.03100
C1149       C  0.52645782  0.17704961  0.75801576     0.02400
C1150       C  0.99698882  0.09807882  0.71843337     0.09200
N1151       N  0.96176030  0.08940405  0.79855318     0.65600
H1152       H  0.97282748  0.13931172  0.83641217     0.18500
N1153       N  0.54909090  0.20577045  0.74448200     0.76100
H1154       H  0.53483229  0.15535537  0.70485908     0.10000
C1155       C  0.98927365  0.09695545  0.67327358     0.03700
C1156       C  0.98677802  0.07408810  0.64650478    -0.05000
C1157       C  0.99163918  0.05185459  0.66363337    -0.23400
C1158       C  0.00009705  0.05337600  0.70870862     0.13000
C1159       C  0.00231335  0.07623964  0.73582387    -0.12500
N1160       N  0.98313589  0.11842648  0.65404284     0.64600
H1161       H  0.98016430  0.07331199  0.61282316     0.12500
N1162       N  0.00722363  0.03254122  0.72734318     0.61300
H1163       H  0.00891366  0.07744133  0.76988578     0.08700
O1164       O  0.55548755  0.21124870  0.70396976    -0.40200
O1165       O  0.56478836  0.22474727  0.77322652    -0.39400
O1166       O  0.95757994  0.08302711  0.83926927    -0.39300
O1167       O  0.94434515  0.07123137  0.77025532    -0.37100
O1168       O  0.97453652  0.50247327  0.73561962    -0.38000
O1169       O  0.02802740  0.03015125  0.71142066    -0.34100
O1170       O  0.99226422  0.12839740  0.61571141    -0.35500
O1171       O  0.96639909  0.12547194  0.67350074    -0.39800
C1172       C  0.97679429  0.27465911  0.71909263    -0.13500
C1173       C  0.99532960  0.30468257  0.72769450     0.16900
C1174       C  0.51723778  0.31514308  0.76404930     0.03200
C1175       C  0.51809508  0.29375311  0.79117245    -0.12000
C1176       C  0.99703419  0.26177017  0.78270049    -0.03100
C1177       C  0.97715327  0.25309277  0.74633437     0.02400
C1178       C  0.99323717  0.32644320  0.69861911     0.09200
N1179       N  0.53772794  0.34572193  0.77210760     0.65600
H1180       H  0.53418615  0.30068813  0.81778185     0.18500
N1181       N  0.95651319  0.22266659  0.73753236     0.76100
H1182       H  0.96138606  0.26800628  0.69155367     0.10000
C1183       C  0.00053893  0.32875126  0.65332801     0.03700
C1184       C  0.99809717  0.34932091  0.62669676    -0.05000
C1185       C  0.98842962  0.36768442  0.64420871    -0.23400
C1186       C  0.98042313  0.36509154  0.68933913     0.13000
C1187       C  0.98291021  0.34435930  0.71606958    -0.12500
N1188       N  0.01081187  0.31064549  0.63408370     0.64600
H1189       H  0.00402821  0.35117152  0.59197657     0.12500
N1190       N  0.97036000  0.38347269  0.70862188     0.61300
H1191       H  0.47689689  0.34244777  0.75181951     0.08700
O1192       O  0.94998824  0.21357821  0.69801954    -0.40200
O1193       O  0.94251506  0.20550742  0.76893762    -0.39400
O1194       O  0.54491982  0.35511403  0.81136856    -0.39300
O1195       O  0.55084071  0.36281388  0.74018526    -0.37100
O1196       O  0.95212552  0.37389024  0.73989021    -0.38000
O1197       O  0.48118236  0.41053298  0.69947836    -0.34100
O1198       O  0.99960358  0.29701878  0.59828883    -0.35500
O1199       O  0.03246644  0.30990154  0.65100418    -0.39800
C1200       C  0.51055116  0.13506281  0.33145143    -0.13500
C1201       C  0.98331793  0.11455320  0.35066968     0.16900
C1202       C  0.95999495  0.12067469  0.34795807     0.03200
C1203       C  0.96467089  0.14668457  0.32739178    -0.12000
C1204       C  0.99164780  0.16621940  0.30815287    -0.03100
C1205       C  0.51471748  0.16067462  0.31008246     0.02400
C1206       C  0.98133777  0.09038872  0.37920623     0.09200
N1207       N  0.93147996  0.10067972  0.36548711     0.65600
H1208       H  0.94692605  0.15146444  0.32544172     0.18500
N1209       N  0.54305823  0.18103740  0.29273856     0.76100
H1210       H  0.52904081  0.13156796  0.33551948     0.10000
C1211       C  0.49034241  0.07087161  0.36492916     0.03700
C1212       C  0.48972044  0.05008912  0.39528807    -0.05000
C1213       C  0.98077816  0.04819713  0.43895672    -0.23400
C1214       C  0.97288569  0.06894880  0.45332399     0.13000
C1215       C  0.97331397  0.08960939  0.42361220    -0.12500
N1216       N  0.49990165  0.07117050  0.32033242     0.64600
H1217       H  0.49662192  0.03487025  0.38442138     0.12500
N1218       N  0.96492919  0.06993436  0.49827418     0.61300
H1219       H  0.96797054  0.10574649  0.43574914     0.08700
O1220       O  0.55749540  0.17169856  0.27197121    -0.40200
O1221       O  0.55485294  0.20811022  0.30151739    -0.39400
O1222       O  0.91566221  0.11033687  0.38079822    -0.39300
O1223       O  0.92092178  0.07324403  0.36211726    -0.37100
O1224       O  0.98480220  0.08454411  0.52651744    -0.38000
O1225       O  0.93871309  0.06235110  0.50709576    -0.34100
O1226       O  0.52091115  0.06664340  0.31318322    -0.35500
O1227       O  0.48616764  0.07392904  0.28778267    -0.39800
C1228       C  0.96471407  0.32929113  0.40116614    -0.13500
C1229       C  0.99037321  0.32745445  0.39989760     0.16900
C1230       C  0.51525404  0.34918948  0.42360554     0.03200
C1231       C  0.51332528  0.37003126  0.45029642    -0.12000
C1232       C  0.98704199  0.36978150  0.45429920    -0.03100
C1233       C  0.96274242  0.34982289  0.42836686     0.02400
C1234       C  0.99117572  0.30482144  0.37119133     0.09200
N1235       N  0.54268174  0.34955007  0.42156295     0.65600
H1236       H  0.53277481  0.38593712  0.46813795     0.18500
N1237       N  0.93622517  0.35081489  0.42757266     0.76100
H1238       H  0.94594428  0.31454131  0.38095588     0.10000
C1239       C  0.97026004  0.27460463  0.37521639     0.03700
C1240       C  0.97214890  0.25414010  0.34766424    -0.05000
C1241       C  0.99488487  0.26286351  0.31688185    -0.23400
C1242       C  0.51383628  0.29337346  0.31119873     0.13000
C1243       C  0.51139480  0.31391894  0.33792393    -0.12500
N1244       N  0.94749760  0.26419299  0.40779787     0.64600
H1245       H  0.95600149  0.23105653  0.35094065     0.12500
N1246       N  0.53729996  0.30380952  0.27980148     0.61300
H1247       H  0.52644781  0.33714555  0.33300302     0.08700
O1248       O  0.91454949  0.33194349  0.44924697    -0.40200
O1249       O  0.93213797  0.36449464  0.39641538    -0.39400
O1250       O  0.56643492  0.37371238  0.41951245    -0.39300
O1251       O  0.54350071  0.32609328  0.42672009    -0.37100
O1252       O  0.54445858  0.32694551  0.25790917    -0.38000
O1253       O  0.55323306  0.29216326  0.27792127    -0.34100
O1254       O  0.92190161  0.24402925  0.39796808    -0.35500
O1255       O  0.95350728  0.27290842  0.44753970    -0.39800
C1256       C  0.98151156  0.19729234  0.00382041    -0.13500
C1257       C  0.00107629  0.22323807  0.02614292     0.16900
C1258       C  0.01981883  0.24848827  0.00166496     0.03200
C1259       C  0.01901401  0.24742448  0.95520042    -0.12000
C1260       C  0.99986905  0.22129811  0.93257003    -0.03100
C1261       C  0.98045670  0.19606475  0.95724379     0.02400
C1262       C  0.00144816  0.22364506  0.07516193     0.09200
N1263       N  0.54351281  0.27589442  0.02475052     0.65600
H1264       H  0.53897437  0.26772044  0.93765358     0.18500
N1265       N  0.95915030  0.16940246  0.93562461     0.76100
H1266       H  0.96670937  0.17804793  0.02281381     0.10000
C1267       C  0.98211473  0.22950036  0.09896418     0.03700
C1268       C  0.98239852  0.22895123  0.14542110    -0.05000
C1269       C  0.00192743  0.22276656  0.16888028    -0.23400
C1270       C  0.52224322  0.21967275  0.14517617     0.13000
C1271       C  0.52221371  0.22056522  0.09857234    -0.12500
N1272       N  0.96177265  0.23557170  0.07623276     0.64600
H1273       H  0.96684767  0.23278968  0.16323779     0.12500
N1274       N  0.54426472  0.21584399  0.16781339     0.61300
H1275       H  0.53835358  0.21782882  0.08042102     0.08700
O1276       O  0.95335008  0.14476349  0.95131293    -0.40200
O1277       O  0.94418266  0.17030707  0.90326393    -0.39400
O1278       O  0.56917670  0.28061643  0.03175624    -0.39300
O1279       O  0.53704363  0.29528035  0.03467938    -0.37100
O1280       O  0.55213294  0.19857932  0.15227634    -0.38000
O1281       O  0.55796137  0.23179647  0.20074605    -0.34100
O1282       O  0.93545385  0.21551161  0.07120720    -0.35500
O1283       O  0.96946243  0.26151681  0.06454813    -0.39800
C1284       C  0.80185920  0.48800265  0.73156016    -0.13500
C1285       C  0.81257606  0.46922790  0.74332236     0.16900
C1286       C  0.80083668  0.45058264  0.78052388     0.03200
C1287       C  0.77793525  0.45056979  0.80415205    -0.12000
C1288       C  0.76703243  0.46930095  0.79231285    -0.03100
C1289       C  0.77956054  0.48858539  0.75581181     0.02400
C1290       C  0.83518856  0.46884912  0.71477931     0.09200
N1291       N  0.81195655  0.43178389  0.79480030     0.65600
H1292       H  0.76854932  0.43581948  0.83208971     0.18500
N1293       N  0.78032484  0.01761018  0.74143477     0.76100
H1294       H  0.81718747  0.00590834  0.69939918     0.10000
C1295       C  0.82935412  0.44405544  0.68895809     0.03700
C1296       C  0.85132088  0.44544457  0.66124039    -0.05000
C1297       C  0.87879820  0.47126648  0.65760269    -0.23400
C1298       C  0.88467109  0.49549886  0.68489106     0.13000
C1299       C  0.86295653  0.49407224  0.71297468    -0.12500
N1300       N  0.80105182  0.41781457  0.68906934     0.64600
H1301       H  0.84623020  0.42658192  0.64065843     0.12500
N1302       N  0.91287751  0.52133908  0.68598887     0.61300
H1303       H  0.86776821  0.51292620  0.73344825     0.08700
O1304       O  0.77951385  0.02473601  0.70158002    -0.40200
O1305       O  0.77954725  0.03345848  0.77221637    -0.39400
O1306       O  0.83910955  0.44076981  0.79389036    -0.39300
O1307       O  0.79500509  0.40713175  0.81209846    -0.37100
O1308       O  0.92931329  0.52584115  0.71927087    -0.38000
O1309       O  0.91831146  0.54227555  0.65987893    -0.34100
O1310       O  0.77793771  0.41946930  0.68822243    -0.35500
O1311       O  0.79906761  0.39293928  0.68531350    -0.39800
C1312       C  0.61934946  0.44507183  0.77384692    -0.13500
C1313       C  0.62604304  0.46959635  0.74726195     0.16900
C1314       C  0.65504150  0.49315632  0.74589934     0.03200
C1315       C  0.67265874  0.00062960  0.79813541    -0.12000
C1316       C  0.67071794  0.46665180  0.79536398    -0.03100
C1317       C  0.64144638  0.44336701  0.79795585     0.02400
C1318       C  0.60289306  0.46984053  0.71936669     0.09200
N1319       N  0.64887646  0.02897316  0.77812363     0.65600
H1320       H  0.68620022  0.01776042  0.82164655     0.18500
N1321       N  0.63404566  0.41754763  0.82356863     0.76100
H1322       H  0.59702677  0.42688252  0.77485282     0.10000
C1323       C  0.59521438  0.45554628  0.67790878     0.03700
C1324       C  0.57384738  0.45679595  0.65148826    -0.05000
C1325       C  0.55948401  0.47176551  0.66581759    -0.23400
C1326       C  0.56359900  0.97847806  0.70694891     0.13000
C1327       C  0.58717251  0.98088122  0.73270949    -0.12500
N1328       N  0.60930976  0.44011612  0.66188029     0.64600
H1329       H  0.56881691  0.44636549  0.61916122     0.12500
N1330       N  0.53744223  0.97322910  0.72912672     0.61300
H1331       H  0.58519278  0.97906897  0.76843860     0.08700
O1332       O  0.61251181  0.40733691  0.84954721    -0.40200
O1333       O  0.64745817  0.40353985  0.81762302    -0.39400
O1334       O  0.64442066  0.03594710  0.81610635    -0.39300
O1335       O  0.65538082  0.04693183  0.74649466    -0.37100
O1336       O  0.51346209  0.95029339  0.72028473    -0.38000
O1337       O  0.53936907  0.98759936  0.76373854    -0.34100
O1338       O  0.59417619  0.41334377  0.65125758    -0.35500
O1339       O  0.63643216  0.45388217  0.65401375    -0.39800
C1340       C  0.83470733  0.45416198  0.41131715    -0.13500
C1341       C  0.83312251  0.48000106  0.40934208     0.16900
C1342       C  0.85324534  0.50461334  0.43475094     0.03200
C1343       C  0.87468956  0.50268048  0.46056805    -0.12000
C1344       C  0.87570975  0.47635137  0.46389126    -0.03100
C1345       C  0.85506447  0.45174981  0.43873569     0.02400
C1346       C  0.80952010  0.47977888  0.38126086     0.09200
N1347       N  0.84506199  0.02171361  0.43418571     0.65600
H1348       H  0.88979107  0.52163027  0.48009032     0.18500
N1349       N  0.85379931  0.42389942  0.44060033     0.76100
H1350       H  0.81926445  0.43518669  0.39206605     0.10000
C1351       C  0.81528733  0.49943199  0.34543331     0.03700
C1352       C  0.79172157  0.49697400  0.31957969    -0.05000
C1353       C  0.76266734  0.47480071  0.32751601    -0.23400
C1354       C  0.75709888  0.45511996  0.36318954     0.13000
C1355       C  0.78042360  0.45824939  0.38995909    -0.12500
N1356       N  0.84494590  0.01349521  0.32567067     0.64600
H1357       H  0.79615906  0.51212979  0.29235635     0.12500
N1358       N  0.72829314  0.43075770  0.37110019     0.61300
H1359       H  0.77593088  0.44296278  0.41703396     0.08700
O1360       O  0.84407343  0.40838809  0.47509086    -0.40200
O1361       O  0.85347373  0.41146647  0.40467695    -0.39400
O1362       O  0.81931830  0.01761973  0.43517005    -0.39300
O1363       O  0.86642269  0.04730453  0.44042128    -0.37100
O1364       O  0.71359736  0.41399661  0.33945641    -0.38000
O1365       O  0.71947752  0.42326535  0.41036816    -0.34100
O1366       O  0.86532548  0.00747111  0.32818748    -0.35500
O1367       O  0.85030093  0.03781455  0.30920682    -0.39800
C1368       C  0.62441191  0.44563694  0.36290971    -0.13500
C1369       C  0.61731288  0.46743016  0.35221307     0.16900
C1370       C  0.63251595  0.48737388  0.31744671     0.03200
C1371       C  0.65492853  0.48548490  0.29547278    -0.12000
C1372       C  0.66307340  0.46476073  0.30812438    -0.03100
C1373       C  0.64695001  0.44397363  0.34126997     0.02400
C1374       C  0.59573151  0.46987754  0.38078447     0.09200
N1375       N  0.62670585  0.51049550  0.30543304     0.65600
H1376       H  0.66732853  0.50150683  0.27013710     0.18500
N1377       N  0.65282776  0.42082447  0.35277171     0.76100
H1378       H  0.61236426  0.42987146  0.38872188     0.10000
C1379       C  0.57012177  0.46935920  0.36440128     0.03700
C1380       C  0.55147283  0.47251929  0.39445860    -0.05000
C1381       C  0.55725332  0.47509639  0.44042428    -0.23400
C1382       C  0.58262071  0.47491993  0.45624756     0.13000
C1383       C  0.60145332  0.47266258  0.42652546    -0.12500
N1384       N  0.56956205  0.97321224  0.31271571     0.64600
H1385       H  0.53521047  0.97335626  0.37689130     0.12500
N1386       N  0.58969110  0.47678682  0.50255912     0.61300
H1387       H  0.62097746  0.47313586  0.43949721     0.08700
O1388       O  0.65684655  0.40661025  0.32261850    -0.40200
O1389       O  0.65032239  0.41207611  0.39244172    -0.39400
O1390       O  0.62453371  0.52622691  0.33501716    -0.39300
O1391       O  0.62746873  0.51765859  0.26519677    -0.37100
O1392       O  0.60441331  0.50159553  0.52093321    -0.38000
O1393       O  0.58453804  0.45388643  0.52359075    -0.34100
O1394       O  0.54365297  0.95879743  0.29781989    -0.35500
O1395       O  0.58999717  0.98912487  0.28649749    -0.39800
C1396       C  0.72616077  0.44822601  0.00918096    -0.13500
C1397       C  0.72224978  0.46927653  0.03198105     0.16900
C1398       C  0.71857061  0.49025775  0.00744914     0.03200
C1399       C  0.71805593  0.48914622  0.96086389    -0.12000
C1400       C  0.72075903  0.46733642  0.93812036    -0.03100
C1401       C  0.72504448  0.44677978  0.96266428     0.02400
C1402       C  0.72170851  0.46869395  0.08132688     0.09200
N1403       N  0.71466865  0.51234845  0.02916815     0.65600
H1404       H  0.71511194  0.50518406  0.94222405     0.18500
N1405       N  0.72713493  0.42364175  0.94097512     0.76100
H1406       H  0.72919363  0.43222733  0.02777102     0.10000
C1407       C  0.70083483  0.44360746  0.10478557     0.03700
C1408       C  0.70072391  0.44421823  0.15134914    -0.05000
C1409       C  0.72068933  0.46939207  0.17501885    -0.23400
C1410       C  0.74181426  0.49412619  0.15174092     0.13000
C1411       C  0.74238308  0.49350717  0.10524655    -0.12500
N1412       N  0.67908526  0.41775423  0.08198725     0.64600
H1413       H  0.68443910  0.42519868  0.16924177     0.12500
N1414       N  0.76527827  0.01570653  0.17315388     0.61300
H1415       H  0.76227033  0.01129505  0.08549139     0.08700
O1416       O  0.70731491  0.40669981  0.91415735    -0.40200
O1417       O  0.74734321  0.41842141  0.95160534    -0.39400
O1418       O  0.72789798  0.53849857  0.01519997    -0.39300
O1419       O  0.69608492  0.50534928  0.05968180    -0.37100
O1420       O  0.79181288  0.02233466  0.17121001    -0.38000
O1421       O  0.75836126  0.03188952  0.19468385    -0.34100
O1422       O  0.67221531  0.39258103  0.09664552    -0.35500
O1423       O  0.66461502  0.41991519  0.04996443    -0.39800
C1424       C  0.88479369  0.38432711  0.73671698    -0.13500
C1425       C  0.86506586  0.35645007  0.71958191     0.16900
C1426       C  0.86862585  0.34921485  0.67609601     0.03200
C1427       C  0.89158648  0.36998111  0.65021831    -0.12000
C1428       C  0.91090281  0.39842114  0.66646953    -0.03100
C1429       C  0.90755131  0.40536814  0.71049778     0.02400
C1430       C  0.84052463  0.33506069  0.74705032     0.09200
N1431       N  0.84879088  0.32096117  0.65761547     0.65600
H1432       H  0.89375349  0.36403167  0.61665039     0.18500
N1433       N  0.92587520  0.43409908  0.72824152     0.76100
H1434       H  0.88206726  0.38998479  0.77019786     0.10000
C1435       C  0.84399855  0.31631000  0.77696593     0.03700
C1436       C  0.81987330  0.29575587  0.80146393    -0.05000
C1437       C  0.79221127  0.29326335  0.79593296    -0.23400
C1438       C  0.78900723  0.31288845  0.76722929     0.13000
C1439       C  0.81324262  0.33346807  0.74287820    -0.12500
N1440       N  0.87161478  0.31737617  0.78189028     0.64600
H1441       H  0.82240723  0.28080429  0.82348891     0.12500
N1442       N  0.76164196  0.31264863  0.76327072     0.61300
H1443       H  0.81092133  0.34844086  0.72063484     0.08700
O1444       O  0.94745292  0.43894396  0.75266161    -0.40200
O1445       O  0.91716408  0.45254151  0.72699765    -0.39400
O1446       O  0.82253332  0.31394724  0.64943790    -0.39300
O1447       O  0.85824539  0.30436343  0.64494849    -0.37100
O1448       O  0.75428670  0.31921939  0.72684960    -0.38000
O1449       O  0.74646376  0.30932042  0.79727830    -0.34100
O1450       O  0.88253678  0.31931008  0.82007580    -0.35500
O1451       O  0.88365824  0.31341839  0.74865398    -0.39800
C1452       C  0.63596460  0.10793840  0.69069440    -0.13500
C1453       C  0.62894410  0.12806927  0.70932141     0.16900
C1454       C  0.60213293  0.12636937  0.69732834     0.03200
C1455       C  0.58344005  0.10525433  0.66629807    -0.12000
C1456       C  0.59067901  0.08542788  0.64664720    -0.03100
C1457       C  0.61738164  0.08687842  0.65954831     0.02400
C1458       C  0.65108984  0.15231508  0.73786783     0.09200
N1459       N  0.59368061  0.14611806  0.71593185     0.65600
H1460       H  0.56303553  0.10442994  0.65761806     0.18500
N1461       N  0.62685652  0.06823481  0.64004333     0.76100
H1462       H  0.65672721  0.10941669  0.69894464     0.10000
C1463       C  0.66370843  0.14685835  0.77581079     0.03700
C1464       C  0.68569202  0.17069006  0.79989190    -0.05000
C1465       C  0.69505864  0.19993308  0.78775335    -0.23400
C1466       C  0.68213782  0.20536049  0.75013143     0.13000
C1467       C  0.66082837  0.18154555  0.72525530    -0.12500
N1468       N  0.65433983  0.11743049  0.79063831     0.64600
H1469       H  0.69553738  0.16635417  0.82853634     0.12500
N1470       N  0.68964752  0.23470522  0.73746874     0.61300
H1471       H  0.65145080  0.18586220  0.69602126     0.08700
O1472       O  0.63303666  0.05258512  0.66469764    -0.40200
O1473       O  0.63457311  0.07176977  0.59991558    -0.39400
O1474       O  0.58355148  0.15839367  0.69107461    -0.39300
O1475       O  0.59563690  0.15084010  0.75723811    -0.37100
O1476       O  0.69116467  0.24148191  0.69692881    -0.38000
O1477       O  0.69139597  0.25285276  0.76642334    -0.34100
O1478       O  0.67267926  0.11119477  0.80724838    -0.35500
O1479       O  0.62744910  0.09828415  0.79090487    -0.39800
C1480       C  0.82390223  0.34657803  0.33026909    -0.13500
C1481       C  0.84167870  0.33764368  0.35265365     0.16900
C1482       C  0.83346898  0.30755394  0.35259868     0.03200
C1483       C  0.80705461  0.28701349  0.33221564    -0.12000
C1484       C  0.78899764  0.29587186  0.31083650    -0.03100
C1485       C  0.79757893  0.32599845  0.30943070     0.02400
C1486       C  0.86586353  0.35908574  0.38174861     0.09200
N1487       N  0.85195727  0.29766568  0.37238815     0.65600
H1488       H  0.80081612  0.26398331  0.33212088     0.18500
N1489       N  0.77922132  0.33583755  0.28899082     0.76100
H1490       H  0.82972010  0.36947603  0.33111549     0.10000
C1491       C  0.88897763  0.38603506  0.36586697     0.03700
C1492       C  0.90969368  0.40648437  0.39605932    -0.05000
C1493       C  0.90801788  0.40037259  0.44182502    -0.23400
C1494       C  0.88447853  0.37339088  0.45732324     0.13000
C1495       C  0.86389513  0.35329663  0.42737055    -0.12500
N1496       N  0.89181121  0.39281111  0.31938689     0.64600
H1497       H  0.92739643  0.42699616  0.38356975     0.12500
N1498       N  0.88075610  0.36601691  0.50350776     0.61300
H1499       H  0.84581904  0.33308017  0.44004588     0.08700
O1500       O  0.79056365  0.35985289  0.26806164    -0.40200
O1501       O  0.75193628  0.32220584  0.29564909    -0.39400
O1502       O  0.87920875  0.31162906  0.36562009    -0.39300
O1503       O  0.84080296  0.27312394  0.39183844    -0.37100
O1504       O  0.86222731  0.36907262  0.52563958    -0.38000
O1505       O  0.89306008  0.35294202  0.52064811    -0.34100
O1506       O  0.89776240  0.41806885  0.30639905    -0.35500
O1507       O  0.89016569  0.37420077  0.29138160    -0.39800
C1508       C  0.62607894  0.10601234  0.39809431    -0.13500
C1509       C  0.62601320  0.13268839  0.39619546     0.16900
C1510       C  0.60450491  0.13550260  0.41985041     0.03200
C1511       C  0.58445727  0.11207382  0.44608951    -0.12000
C1512       C  0.58581544  0.08605772  0.45064099    -0.03100
C1513       C  0.60656249  0.08298095  0.42534401     0.02400
C1514       C  0.64869890  0.15729151  0.36960857     0.09200
N1515       N  0.60355826  0.16237852  0.41949904     0.65600
H1516       H  0.56877117  0.11504901  0.46506570     0.18500
N1517       N  0.60769019  0.05639901  0.42582668     0.76100
H1518       H  0.64185821  0.10327166  0.37893914     0.10000
C1519       C  0.67888781  0.16802462  0.37732379     0.03700
C1520       C  0.69957605  0.19107689  0.35129922    -0.05000
C1521       C  0.69103412  0.20451417  0.31859940    -0.23400
C1522       C  0.66078227  0.19395450  0.31107774     0.13000
C1523       C  0.64002395  0.17004003  0.33599192    -0.12500
N1524       N  0.68895331  0.15627385  0.41201770     0.64600
H1525       H  0.72263881  0.19881006  0.35702677     0.12500
N1526       N  0.65076548  0.20778823  0.27968215     0.61300
H1527       H  0.61689604  0.16181484  0.32999219     0.08700
O1528       O  0.62370847  0.05312890  0.45406447    -0.40200
O1529       O  0.59826341  0.03965201  0.39247608    -0.39400
O1530       O  0.57920489  0.16158430  0.41758867    -0.39300
O1531       O  0.62664225  0.18668795  0.42613468    -0.37100
O1532       O  0.66295652  0.23545846  0.27800290    -0.38000
O1533       O  0.62762677  0.19246650  0.25730378    -0.34100
O1534       O  0.71010025  0.15191090  0.40519882    -0.35500
O1535       O  0.67880867  0.15307019  0.45072267    -0.39800
C1536       C  0.71434156  0.24876018  0.09950388    -0.13500
C1537       C  0.73510459  0.24383275  0.07823304     0.17500
C1538       C  0.75563237  0.24009204  0.10393183     0.03200
C1539       C  0.75519137  0.24196624  0.15031924    -0.12000
C1540       C  0.73493558  0.24765748  0.17145788    -0.03100
C1541       C  0.71404586  0.25076978  0.14588816     0.02400
C1542       C  0.73517871  0.24332664  0.02910911     0.09200
N1543       N  0.77715532  0.23474189  0.08368775     0.65600
H1544       H  0.77100993  0.23932338  0.17015543     0.18500
N1545       N  0.69299386  0.25668553  0.16632478     0.76100
H1546       H  0.69860953  0.25158823  0.07974529     0.10000
C1547       C  0.72822706  0.21764618  0.00479308     0.03700
C1548       C  0.73026804  0.21922678  0.95829339    -0.05000
C1549       C  0.73833361  0.24557621  0.93549027    -0.23400
C1550       C  0.74469837  0.27107017  0.96007379     0.13000
C1551       C  0.74335600  0.26964523  0.00651583    -0.12500
N1552       N  0.71895504  0.18995551  0.02655671     0.64600
H1553       H  0.72538833  0.19966487  0.93966087     0.12500
N1554       N  0.75173514  0.29828517  0.93862890     0.61300
H1555       H  0.74845940  0.28922659  0.02530934     0.08700
O1556       O  0.66691443  0.24431936  0.15196175    -0.40200
O1557       O  0.70096877  0.27623398  0.19593785    -0.39400
O1558       O  0.79070552  0.24884782  0.04959413    -0.39300
O1559       O  0.78458327  0.21779297  0.10218387    -0.37100
O1560       O  0.73651884  0.29852183  0.90613008    -0.38000
O1561       O  0.77103798  0.32240839  0.95517803    -0.34100
O1562       O  0.70251528  0.18264091  0.05999701    -0.35500
O1563       O  0.72496125  0.17154662  0.01001386    -0.39800
C1564       C  0.71904573  0.72129426  0.29159081     0.04000
C1565       C  0.74319106  0.74580184  0.31142761    -0.12200
C1566       C  0.76668712  0.76622309  0.28560147     0.01500
C1567       C  0.76580461  0.76239323  0.23962655    -0.10700
C1568       C  0.74178940  0.73845822  0.21912800     0.04000
C1569       C  0.71864591  0.71773620  0.24523211    -0.10100
H1570       H  0.74402559  0.74871274  0.34712074     0.09600
H1571       H  0.78381929  0.77830894  0.21965535     0.07100
H1572       H  0.70065403  0.69864279  0.22948687     0.06900
C1573       C  0.72408083  0.71909145  0.81510364     0.04000
C1574       C  0.72460649  0.71871504  0.86168945    -0.12200
C1575       C  0.74778936  0.74135351  0.88569359     0.01500
C1576       C  0.77076510  0.76462553  0.86286937    -0.10700
C1577       C  0.77051931  0.76566024  0.81634961     0.04000
C1578       C  0.74731031  0.74259805  0.79258606    -0.10100
H1579       H  0.70667929  0.70092302  0.87944596     0.09600
H1580       H  0.78877769  0.78207010  0.88139261     0.07100
H1581       H  0.74756947  0.74277143  0.75663155     0.06900
C1582       C  0.73887911  0.96711882  0.29166695     0.04000
C1583       C  0.71483241  0.96727052  0.31117618    -0.12200
C1584       C  0.69199806  0.96588078  0.28483786     0.01500
C1585       C  0.69354727  0.96485824  0.23847786    -0.10700
C1586       C  0.71792521  0.96575408  0.21845466     0.04000
C1587       C  0.74040930  0.96669317  0.24514281    -0.10100
H1588       H  0.71393426  0.96864503  0.34697374     0.09600
H1589       H  0.67640794  0.96464312  0.21795141     0.07100
H1590       H  0.75902675  0.96696476  0.22962825     0.06900
C1591       C  0.74783814  0.97526273  0.81265043     0.04000
C1592       C  0.72431120  0.97561183  0.79083131    -0.12200
C1593       C  0.70223026  0.97669092  0.81506291     0.01500
C1594       C  0.70360089  0.97714635  0.86155864    -0.10700
C1595       C  0.72647960  0.97588357  0.88396197     0.04000
C1596       C  0.74875631  0.97538744  0.85928440    -0.10100
H1597       H  0.72312523  0.97499521  0.75487980     0.09600
H1598       H  0.68626775  0.97742295  0.88030124     0.07100
H1599       H  0.76681647  0.97510309  0.87640772     0.06900
C1600       C  0.00696681  0.74408231  0.29007347     0.04000
C1601       C  0.00592282  0.71985662  0.31174090    -0.12200
C1602       C  0.00514557  0.69673152  0.28743446     0.01500
C1603       C  0.00596790  0.69813921  0.24095248    -0.10700
C1604       C  0.00721489  0.72231049  0.21884327     0.04000
C1605       C  0.00743620  0.74504973  0.24353547    -0.10100
H1606       H  0.00514790  0.71868359  0.34769409     0.09600
H1607       H  0.00448131  0.67993764  0.22198125     0.07100
H1608       H  0.00743518  0.76324673  0.22642929     0.06900
C1609       C  0.00071542  0.74171391  0.81267750     0.04000
C1610       C  0.00024676  0.74347473  0.85906632    -0.12200
C1611       C  0.99994489  0.72130578  0.88557955     0.01500
C1612       C  0.00120658  0.69789507  0.86560652    -0.10700
C1613       C  0.00255009  0.69637597  0.81934969     0.04000
C1614       C  0.00179458  0.71811531  0.79300644    -0.10100
H1615       H  0.99933695  0.76163359  0.87445898     0.09600
H1616       H  0.00161296  0.68110015  0.88616904     0.07100
H1617       H  0.00204407  0.71669485  0.75714880     0.06900
O1618       O  0.91743605  0.49946209  0.51166344    -0.87300
C1619       C  0.57092200  0.56061719  0.61999661     1.12700
O1620       O  0.95491463  0.97323192  0.55104091    -1.35100
O1621       O  0.54857870  0.56640074  0.50698443    -0.88800
O1622       O  0.89565545  0.94703882  0.49974595    -0.89500
O1623       O  0.95503330  0.94273460  0.45615704    -0.78300
O1624       O  0.98321252  0.53238002  0.51618220    -1.00400
C1625       C  0.53929561  0.97801617  0.46700903     1.22800
O1626       O  0.98780431  0.94492688  0.54976107    -1.35300
Mn1627     Mn  0.98687207  0.97465651  0.59859098     1.82100
O1628       O  0.51596694  0.97702160  0.45474141    -0.77400
O1629       O  0.57342915  0.54231773  0.50485289    -0.86800
C1630       C  0.54270892  0.97896656  0.62964191     1.13800
C1631       C  0.56877139  0.56264654  0.49121174     1.08600
O1632       O  0.95716777  0.94332621  0.64426239    -0.78300
O1633       O  0.51515850  0.50637697  0.55534350    -1.32000
O1634       O  0.93072099  0.91640478  0.59176303    -0.97500
C1635       C  0.99051186  0.89119523  0.48621899     1.07300
Mn1636     Mn  0.55667333  0.50918888  0.55376072     1.48600
O1637       O  0.96575205  0.88537864  0.50165513    -0.86700
Mn1638     Mn  0.91441041  0.93319589  0.54991110     1.49600
O1639       O  0.92022344  0.99501775  0.60569727    -0.90600
C1640       C  0.98296857  0.52886172  0.47621075     1.20500
C1641       C  0.89968150  0.96982026  0.61752992     1.12500
Mn1642     Mn  0.98536960  0.97462678  0.50160989     1.81000
O1643       O  0.54614866  0.97958418  0.58962018    -0.95800
Mn1644     Mn  0.95112207  0.51336081  0.55909531     1.49300
C1645       C  0.89775105  0.97157270  0.48920210     1.09100
Mn1646     Mn  0.52885471  0.94660568  0.54811884     1.49900
C1647       C  0.99276281  0.89219955  0.61333549     1.12000
O1648       O  0.93067588  0.91600144  0.50937582    -1.01600
O1649       O  0.57504589  0.54060521  0.60413554    -0.91200
C1650       C  0.93363077  0.91916453  0.46949754     1.23200
O1651       O  0.54395948  0.97930134  0.50670531    -1.01900
O1652       O  0.55067555  0.56520267  0.60593730    -0.89300
O1653       O  0.51754326  0.91466457  0.59672026    -0.88900
O1654       O  0.89514983  0.94608702  0.59915988    -0.89000
Mn1655     Mn  0.51757725  0.54791631  0.55720769     1.47900
O1656       O  0.51942820  0.97727074  0.64292078    -0.77400
C1657       C  0.93419793  0.92073173  0.63159750     1.16300
O1658       O  0.98301686  0.50630105  0.46277820    -0.76200
O1659       O  0.98658590  0.50492100  0.65040118    -0.75800
Mn1660     Mn  0.95030565  0.90255163  0.55098472     1.51100
O1661       O  0.51535350  0.91461584  0.49898546    -0.88100
O1662       O  0.98517706  0.53123060  0.59894294    -0.95700
O1663       O  0.96727462  0.88675503  0.60090215    -0.90700
C1664       C  0.98679625  0.52791351  0.63860185     1.14100
C1665       C  0.02169330  0.65213930  0.74120803    -0.13500
C1666       C  0.99935064  0.62342741  0.75054927     0.16900
C1667       C  0.97979504  0.61867710  0.78542152     0.03200
C1668       C  0.98233697  0.64273272  0.80919758    -0.12000
C1669       C  0.00376912  0.67157775  0.79831548    -0.03100
C1670       C  0.52697733  0.67838908  0.76287813     0.02400
C1671       C  0.99629780  0.59892497  0.72239777     0.09200
N1672       N  0.95586110  0.58991806  0.79473125     0.65600
H1673       H  0.96635590  0.63900329  0.83439197     0.18500
N1674       N  0.55054653  0.70699876  0.75098556     0.76100
H1675       H  0.53710024  0.65674283  0.71146111     0.10000
C1676       C  0.99233751  0.59917834  0.67613994     0.03700
C1677       C  0.98955285  0.57582663  0.65047919    -0.05000
C1678       C  0.99015365  0.55155579  0.66954320    -0.23400
C1679       C  0.99497854  0.55175170  0.71600844     0.13000
C1680       C  0.99810181  0.57550696  0.74173886    -0.12500
N1681       N  0.99049353  0.62267493  0.65463545     0.64600
H1682       H  0.98617520  0.57652381  0.61516801     0.12500
N1683       N  0.99622358  0.52815751  0.73804375     0.61300
H1684       H  0.00156547  0.57553619  0.77718170     0.08700
O1685       O  0.55797745  0.71305620  0.71090338    -0.40200
O1686       O  0.56578842  0.72530339  0.78078084    -0.39400
O1687       O  0.95103059  0.58057446  0.83416116    -0.39300
O1688       O  0.93693543  0.57594428  0.76495959    -0.37100
O1689       O  0.99610934  0.02014798  0.76370669    -0.38000
O1690       O  0.01533730  0.53391674  0.76792060    -0.34100
O1691       O  0.00396430  0.63334563  0.61883341    -0.35500
O1692       O  0.97346669  0.63107385  0.66916904    -0.39800
C1693       C  0.97739559  0.77875848  0.72608540    -0.13500
C1694       C  0.00000968  0.80807656  0.72963770     0.16900
C1695       C  0.52586823  0.81886654  0.76078579     0.03200
C1696       C  0.52618061  0.79707777  0.78755423    -0.12000
C1697       C  0.99975272  0.76435380  0.78456339    -0.03100
C1698       C  0.97694997  0.75687612  0.75331238     0.02400
C1699       C  0.99905319  0.83010491  0.69986232     0.09200
N1700       N  0.54861986  0.84895617  0.76624428     0.65600
H1701       H  0.54364884  0.80321519  0.81176223     0.18500
N1702       N  0.95293491  0.72733304  0.74951450     0.76100
H1703       H  0.95981526  0.77292586  0.70217923     0.10000
C1704       C  0.02089320  0.84575779  0.66784931     0.03700
C1705       C  0.01903925  0.86697270  0.64165876    -0.05000
C1706       C  0.99559861  0.87244052  0.64588672    -0.23400
C1707       C  0.97426187  0.85707320  0.67838762     0.13000
C1708       C  0.97594831  0.83588951  0.70460517    -0.12500
N1709       N  0.04442816  0.83982995  0.66052293     0.64600
H1710       H  0.03532871  0.87829646  0.61627003     0.12500
N1711       N  0.95191698  0.86416100  0.68708596     0.61300
H1712       H  0.46316092  0.82770827  0.73157478     0.08700
O1713       O  0.94438306  0.71561093  0.71174836    -0.40200
O1714       O  0.93872480  0.71376239  0.78351349    -0.39400
O1715       O  0.54242298  0.86927951  0.76728344    -0.39300
O1716       O  0.57473747  0.85508728  0.77345685    -0.37100
O1717       O  0.92551882  0.84404454  0.68975692    -0.38000
O1718       O  0.46300489  0.89405038  0.69665828    -0.34100
O1719       O  0.03990684  0.81386111  0.66232131    -0.35500
O1720       O  0.06911555  0.86014009  0.64788887    -0.39800
C1721       C  0.51457276  0.63350761  0.32733904    -0.13500
C1722       C  0.98844450  0.61785108  0.35575440     0.16900
C1723       C  0.96924252  0.62918518  0.35972124     0.03200
C1724       C  0.97566511  0.65518972  0.33765656    -0.12000
C1725       C  0.00045312  0.66986625  0.31072382    -0.03100
C1726       C  0.52051591  0.65910598  0.30397550     0.02400
C1727       C  0.98559623  0.59385933  0.38521593     0.09200
N1728       N  0.94306692  0.61438894  0.38571953     0.65600
H1729       H  0.96081287  0.66373130  0.34073115     0.18500
N1730       N  0.54612076  0.67321623  0.27661845     0.76100
H1731       H  0.52972909  0.62530951  0.32502744     0.10000
C1732       C  0.48773399  0.57020127  0.36929986     0.03700
C1733       C  0.48633961  0.54909349  0.39968106    -0.05000
C1734       C  0.98382197  0.55137282  0.44519340    -0.23400
C1735       C  0.98486416  0.57725553  0.46104374     0.13000
C1736       C  0.98581569  0.59803397  0.43113686    -0.12500
N1737       N  0.48867496  0.56533387  0.32258622     0.64600
H1738       H  0.48635378  0.52980413  0.38717878     0.12500
N1739       N  0.98564590  0.58328600  0.50745871     0.61300
H1740       H  0.98729178  0.61797902  0.44399691     0.08700
O1741       O  0.55391579  0.65793459  0.25449990    -0.40200
O1742       O  0.56270498  0.70075105  0.27808554    -0.39400
O1743       O  0.93473906  0.62900703  0.40840417    -0.39300
O1744       O  0.92695694  0.58681483  0.38329198    -0.37100
O1745       O  0.00995612  0.59637844  0.52774813    -0.38000
O1746       O  0.96282147  0.57978035  0.52630323    -0.34100
O1747       O  0.50325215  0.55390607  0.30862619    -0.35500
O1748       O  0.47305051  0.57011318  0.29554227    -0.39800
C1749       C  0.97092377  0.83014654  0.40076834    -0.13500
C1750       C  0.99800815  0.83145681  0.39569639     0.16900
C1751       C  0.52464703  0.85572596  0.41811845     0.03200
C1752       C  0.52134920  0.87565474  0.44489582    -0.12000
C1753       C  0.99238876  0.87127984  0.45278215    -0.03100
C1754       C  0.96768453  0.84900881  0.43001008     0.02400
C1755       C  0.99962345  0.80892826  0.36783007     0.09200
N1756       N  0.55297211  0.85805426  0.41572621     0.65600
H1757       H  0.54052074  0.89241590  0.46223638     0.18500
N1758       N  0.93904986  0.84494838  0.43594297     0.76100
H1759       H  0.95179821  0.81352452  0.38313284     0.10000
C1760       C  0.98047396  0.77849701  0.37455593     0.03700
C1761       C  0.98316610  0.75810195  0.34815593    -0.05000
C1762       C  0.00521189  0.76709065  0.31618165    -0.23400
C1763       C  0.52656520  0.79921882  0.30978358     0.13000
C1764       C  0.52286906  0.81965703  0.33480289    -0.12500
N1765       N  0.95872252  0.76780587  0.40872501     0.64600
H1766       H  0.96819719  0.73488330  0.35329612     0.12500
N1767       N  0.55041444  0.80979173  0.27901397     0.61300
H1768       H  0.53720394  0.84291247  0.32899987     0.08700
O1769       O  0.92475221  0.83181474  0.47009724    -0.40200
O1770       O  0.92554794  0.84700991  0.40262728    -0.39400
O1771       O  0.57573471  0.88300208  0.41265729    -0.39300
O1772       O  0.55562538  0.83569641  0.42195581    -0.37100
O1773       O  0.55789502  0.83304923  0.25726428    -0.38000
O1774       O  0.56630947  0.79808720  0.27754988    -0.34100
O1775       O  0.93338869  0.74643823  0.40091946    -0.35500
O1776       O  0.96563011  0.77744176  0.44792084    -0.39800
C1777       C  0.97778438  0.70079882  0.00542925    -0.13500
C1778       C  0.00090608  0.72461256  0.02768970     0.16900
C1779       C  0.02315882  0.74783643  0.00314554     0.03200
C1780       C  0.02200126  0.74662135  0.95668153    -0.12000
C1781       C  0.99895454  0.72276804  0.93436842    -0.03100
C1782       C  0.97647656  0.69973161  0.95896160     0.02400
C1783       C  0.00228163  0.72411767  0.07661755     0.09200
N1784       N  0.55138726  0.77696922  0.02492819     0.65600
H1785       H  0.54463499  0.76838273  0.93776163     0.18500
N1786       N  0.95221067  0.67532236  0.93721345     0.76100
H1787       H  0.96072140  0.68298382  0.02433675     0.10000
C1788       C  0.98168622  0.72668595  0.10290136     0.03700
C1789       C  0.98378513  0.72596671  0.14920135    -0.05000
C1790       C  0.00619075  0.72295709  0.16980636    -0.23400
C1791       C  0.52962108  0.72306704  0.14326191     0.13000
C1792       C  0.52792171  0.72421285  0.09687364    -0.12500
N1793       N  0.95885666  0.73042648  0.08312827     0.64600
H1794       H  0.96792126  0.72796063  0.16930909     0.12500
N1795       N  0.55269683  0.71972104  0.16311192     0.61300
H1796       H  0.54371245  0.72210912  0.07674547     0.08700
O1797       O  0.94405070  0.64938533  0.94960075    -0.40200
O1798       O  0.93763812  0.67968972  0.90765494    -0.39400
O1799       O  0.57752487  0.78614806  0.01338840    -0.39300
O1800       O  0.54608011  0.79100953  0.05381343    -0.37100
O1801       O  0.55975243  0.70212062  0.14643865    -0.38000
O1802       O  0.56806558  0.73647027  0.19435324    -0.34100
O1803       O  0.93292416  0.71568818  0.09706370    -0.35500
O1804       O  0.96493300  0.75014238  0.05434342    -0.39800
C1805       C  0.80620529  0.99078245  0.72643469    -0.13500
C1806       C  0.81326648  0.96888550  0.73610831     0.16900
C1807       C  0.79927887  0.94940849  0.77182177     0.03200
C1808       C  0.77810710  0.95206398  0.79630932    -0.12000
C1809       C  0.77109084  0.97407863  0.78667144    -0.03100
C1810       C  0.78559832  0.99385529  0.75147171     0.02400
C1811       C  0.83540836  0.96722832  0.70801910     0.09200
N1812       N  0.80641252  0.92715245  0.78387947     0.65600
H1813       H  0.76705406  0.93688168  0.82323939     0.18500
N1814       N  0.77050368  0.50934570  0.74349495     0.76100
H1815       H  0.81110821  0.50249079  0.70329024     0.10000
C1816       C  0.82858651  0.94271501  0.68070754     0.03700
C1817       C  0.85051893  0.94331169  0.65364910    -0.05000
C1818       C  0.87891703  0.96803446  0.65240946    -0.23400
C1819       C  0.88572463  0.99172780  0.68144470     0.13000
C1820       C  0.86400085  0.99123341  0.70837216    -0.12500
N1821       N  0.79943357  0.91772778  0.67851505     0.64600
H1822       H  0.84478462  0.92495212  0.63155076     0.12500
N1823       N  0.91491547  0.01585992  0.68564969     0.61300
H1824       H  0.86957791  0.00970166  0.73021279     0.08700
O1825       O  0.76806600  0.51420220  0.70302532    -0.40200
O1826       O  0.76781204  0.52500340  0.77270417    -0.39400
O1827       O  0.83263342  0.93260878  0.78314263    -0.39300
O1828       O  0.78688843  0.90279915  0.79909443    -0.37100
O1829       O  0.93401167  0.01182596  0.70483943    -0.38000
O1830       O  0.91991624  0.04173170  0.67932416    -0.34100
O1831       O  0.77736994  0.92120064  0.67825270    -0.35500
O1832       O  0.79572240  0.89230539  0.67239003    -0.39800
C1833       C  0.63904344  0.95770363  0.73508817    -0.13500
C1834       C  0.63486183  0.98187632  0.74066624     0.16900
C1835       C  0.65166927  0.00340265  0.77276851     0.03200
C1836       C  0.67714256  0.49148144  0.76966165    -0.12000
C1837       C  0.67749603  0.97692003  0.79153338    -0.03100
C1838       C  0.65999456  0.95483995  0.76035647     0.02400
C1839       C  0.61243794  0.98370245  0.71279264     0.09200
N1840       N  0.66233561  0.51872168  0.71997164     0.65600
H1841       H  0.69947224  0.50961537  0.76798638     0.18500
N1842       N  0.66275840  0.92915411  0.75474809     0.76100
H1843       H  0.62558678  0.94076293  0.71127238     0.10000
C1844       C  0.61457890  0.98491135  0.66616897     0.03700
C1845       C  0.59137044  0.98297918  0.64052185    -0.05000
C1846       C  0.56575133  0.97990623  0.66000232    -0.23400
C1847       C  0.56647269  0.48515802  0.70822417     0.13000
C1848       C  0.58840904  0.48444290  0.73426972    -0.12500
N1849       N  0.64036585  0.98860477  0.64434808     0.64600
H1850       H  0.59372880  0.98438698  0.60488845     0.12500
N1851       N  0.55236824  0.50041921  0.72470773     0.61300
H1852       H  0.59411343  0.49523182  0.76635202     0.08700
O1853       O  0.66547296  0.91608892  0.78817964    -0.40200
O1854       O  0.65966771  0.91782554  0.71676255    -0.39400
O1855       O  0.66631476  0.54191784  0.73866964    -0.39300
O1856       O  0.66696659  0.51883946  0.67893312    -0.37100
O1857       O  0.52585452  0.48597864  0.73610754    -0.38000
O1858       O  0.56766266  0.52695605  0.73648249    -0.34100
O1859       O  0.63809482  0.97550508  0.60818971    -0.35500
O1860       O  0.66553904  0.00695698  0.65894212    -0.39800
C1861       C  0.83816926  0.94984812  0.39995686    -0.13500
C1862       C  0.83282104  0.97337885  0.40187751     0.16900
C1863       C  0.84994774  0.99719254  0.43067327     0.03200
C1864       C  0.87169331  0.99651318  0.45736209    -0.12000
C1865       C  0.87647420  0.97235729  0.45671724    -0.03100
C1866       C  0.85971661  0.94917509  0.42672592     0.02400
C1867       C  0.80933124  0.97238556  0.37302237     0.09200
N1868       N  0.85159765  0.53116886  0.43626516     0.65600
H1869       H  0.88406973  0.01451570  0.48018780     0.18500
N1870       N  0.86508648  0.92536268  0.42117919     0.76100
H1871       H  0.82555426  0.93183181  0.37717380     0.10000
C1872       C  0.81538180  0.99181825  0.33690746     0.03700
C1873       C  0.79196886  0.98962396  0.31106152    -0.05000
C1874       C  0.76277664  0.96817435  0.31982815    -0.23400
C1875       C  0.75690537  0.94864062  0.35583022     0.13000
C1876       C  0.78021875  0.95119210  0.38210625    -0.12500
N1877       N  0.84470432  0.52143130  0.33414313     0.64600
H1878       H  0.79656473  0.00466892  0.28362614     0.12500
N1879       N  0.72765059  0.92559263  0.36542093     0.61300
H1880       H  0.77567405  0.93615668  0.40955568     0.08700
O1881       O  0.85009029  0.90209147  0.44302935    -0.40200
O1882       O  0.87758756  0.92440043  0.38625944    -0.39400
O1883       O  0.82705989  0.53000797  0.43584064    -0.39300
O1884       O  0.87446803  0.55562972  0.44308233    -0.37100
O1885       O  0.71092943  0.90962759  0.33455528    -0.38000
O1886       O  0.71954685  0.91912263  0.40518243    -0.34100
O1887       O  0.86522659  0.51558099  0.33546677    -0.35500
O1888       O  0.84974106  0.54589430  0.31869032    -0.39800
C1889       C  0.61628481  0.95071169  0.32017975    -0.13500
C1890       C  0.62387906  0.97517967  0.34747871     0.16900
C1891       C  0.65376537  0.99681196  0.35254809     0.03200
C1892       C  0.67529923  0.99284196  0.33219776    -0.12000
C1893       C  0.66786612  0.96810160  0.30590963    -0.03100
C1894       C  0.63795688  0.94687978  0.29931381     0.02400
C1895       C  0.60124543  0.97556847  0.37622403     0.09200
N1896       N  0.66256143  0.02297037  0.37816638     0.65600
H1897       H  0.69813088  0.00953309  0.33625698     0.18500
N1898       N  0.62930553  0.92070910  0.27372060     0.76100
H1899       H  0.59350458  0.93371631  0.31712054     0.10000
C1900       C  0.57517668  0.97389125  0.35961901     0.03700
C1901       C  0.55480139  0.97398064  0.38969512    -0.05000
C1902       C  0.56013058  0.97614749  0.43581292    -0.23400
C1903       C  0.58580585  0.97663413  0.45182547     0.13000
C1904       C  0.60578660  0.97637055  0.42215708    -0.12500
N1905       N  0.56226034  0.46480924  0.31804905     0.64600
H1906       H  0.53185133  0.47200719  0.38199582     0.12500
N1907       N  0.59201691  0.97706337  0.49826481     0.61300
H1908       H  0.62512266  0.97656777  0.43530354     0.08700
O1909       O  0.60630429  0.90994064  0.25010199    -0.40200
O1910       O  0.64280316  0.90660380  0.27817889    -0.39400
O1911       O  0.68541685  0.03352505  0.40209785    -0.39300
O1912       O  0.64947650  0.03740323  0.37300857    -0.37100
O1913       O  0.61254399  0.00007936  0.51567585    -0.38000
O1914       O  0.58092037  0.95322094  0.51960547    -0.34100
O1915       O  0.56673690  0.44729705  0.29532069    -0.35500
O1916       O  0.54833289  0.47617089  0.30065665    -0.39800
C1917       C  0.72816169  0.95116880  0.00249251    -0.13500
C1918       C  0.72431977  0.97168178  0.02687388     0.16900
C1919       C  0.72224456  0.99418615  0.00427133     0.03200
C1920       C  0.72360687  0.99542825  0.95778379    -0.12000
C1921       C  0.72650940  0.97435622  0.93318711    -0.03100
C1922       C  0.72893863  0.95201312  0.95593619     0.02400
C1923       C  0.72286267  0.96945878  0.07597800     0.09200
N1924       N  0.71793640  0.01538302  0.02792347     0.65600
H1925       H  0.72183451  0.01266153  0.94063883     0.18500
N1926       N  0.73111434  0.92945125  0.93241656     0.76100
H1927       H  0.72987069  0.93395874  0.01982250     0.10000
C1928       C  0.70012702  0.94469410  0.09736053     0.03700
C1929       C  0.69909157  0.94364627  0.14388032    -0.05000
C1930       C  0.72035826  0.96694590  0.16950967    -0.23400
C1931       C  0.74347021  0.99133469  0.14811997     0.13000
C1932       C  0.74462116  0.99233251  0.10166458    -0.12500
N1933       N  0.67759127  0.92084902  0.07227393     0.64600
H1934       H  0.68135855  0.92478722  0.16012286     0.12500
N1935       N  0.76182379  0.52048025  0.17482345     0.61300
H1936       H  0.75856854  0.51273313  0.08763771     0.08700
O1937       O  0.71332836  0.91546516  0.90131565    -0.40200
O1938       O  0.74890123  0.92145550  0.94556157    -0.39400
O1939       O  0.73278453  0.04230333  0.01816847    -0.39300
O1940       O  0.69758565  0.00704230  0.05584053    -0.37100
O1941       O  0.78884932  0.52890504  0.17568116    -0.38000
O1942       O  0.75274310  0.53630993  0.19203140    -0.34100
O1943       O  0.67222954  0.89489901  0.07907830    -0.35500
O1944       O  0.66183146  0.92542378  0.04522900    -0.39800
C1945       C  0.88937171  0.88162589  0.73501909    -0.13500
C1946       C  0.86721361  0.85536232  0.71605937     0.16900
C1947       C  0.86690475  0.85117272  0.66984112     0.03200
C1948       C  0.88864456  0.87313492  0.64368293    -0.12000
C1949       C  0.91116475  0.89949035  0.66222510    -0.03100
C1950       C  0.91103128  0.90397131  0.70858511     0.02400
C1951       C  0.84294746  0.83357887  0.74399694     0.09200
N1952       N  0.84499463  0.82449258  0.64898674     0.65600
H1953       H  0.88822135  0.86907881  0.60849669     0.18500
N1954       N  0.93209842  0.93102690  0.72930562     0.76100
H1955       H  0.88912676  0.88521676  0.77031271     0.10000
C1956       C  0.84780917  0.81855697  0.77897415     0.03700
C1957       C  0.82395054  0.79721023  0.80296294    -0.05000
C1958       C  0.79514343  0.79040237  0.79273347    -0.23400
C1959       C  0.79037734  0.80651416  0.75916105     0.13000
C1960       C  0.81429997  0.82764805  0.73487790    -0.12500
N1961       N  0.87654496  0.82345351  0.78888733     0.64600
H1962       H  0.82783808  0.78496760  0.82853747     0.12500
N1963       N  0.76174212  0.80259641  0.75063875     0.61300
H1964       H  0.81065943  0.83989527  0.70902590     0.08700
O1965       O  0.94415606  0.93054547  0.76549936    -0.40200
O1966       O  0.93467780  0.95501846  0.71596049    -0.39400
O1967       O  0.83392773  0.82543392  0.61205826    -0.39300
O1968       O  0.83850222  0.79983462  0.66540874    -0.37100
O1969       O  0.75423065  0.80517177  0.71167946    -0.38000
O1970       O  0.74557236  0.80068917  0.78261977    -0.34100
O1971       O  0.88614665  0.82871996  0.82831433    -0.35500
O1972       O  0.88983901  0.81706584  0.76035369    -0.39800
C1973       C  0.63768725  0.60285437  0.69576916    -0.13500
C1974       C  0.63035586  0.62165455  0.71805174     0.16900
C1975       C  0.60254325  0.61879117  0.71053931     0.03200
C1976       C  0.58331749  0.59833495  0.67926355    -0.12000
C1977       C  0.59096320  0.58008099  0.65566593    -0.03100
C1978       C  0.61831901  0.58207057  0.66513312     0.02400
C1979       C  0.65322224  0.64615938  0.74507298     0.09200
N1980       N  0.59365960  0.63669018  0.73409678     0.65600
H1981       H  0.56226578  0.59679155  0.67342237     0.18500
N1982       N  0.62760235  0.56437399  0.64225004     0.76100
H1983       H  0.65906820  0.60503920  0.70100044     0.10000
C1984       C  0.66792173  0.64120941  0.78061962     0.03700
C1985       C  0.69108911  0.66535640  0.80243274    -0.05000
C1986       C  0.69946937  0.69442685  0.79046711    -0.23400
C1987       C  0.68429231  0.69926360  0.75539823     0.13000
C1988       C  0.66180153  0.67513503  0.73268405    -0.12500
N1989       N  0.65934549  0.61195768  0.79536088     0.64600
H1990       H  0.70251977  0.66140543  0.82926620     0.12500
N1991       N  0.69056755  0.72832404  0.74351704     0.61300
H1992       H  0.65065318  0.67899735  0.70532833     0.08700
O1993       O  0.62194760  0.53983391  0.65808883    -0.40200
O1994       O  0.64465999  0.57488164  0.60968510    -0.39400
O1995       O  0.58147799  0.64876382  0.71354296    -0.39300
O1996       O  0.59664575  0.63932476  0.77575754    -0.37100
O1997       O  0.69062540  0.73502824  0.70320048    -0.38000
O1998       O  0.69192831  0.74587931  0.77319865    -0.34100
O1999       O  0.67849563  0.60573617  0.80825162    -0.35500
O2000       O  0.63256008  0.59297758  0.79920212    -0.39800
C2001       C  0.81621245  0.83200876  0.35790541    -0.13500
C2002       C  0.84322014  0.83299999  0.35337420     0.16900
C2003       C  0.84519499  0.81298213  0.32448946     0.03200
C2004       C  0.82022188  0.79239650  0.30101021    -0.12000
C2005       C  0.79301825  0.79076745  0.30675464    -0.03100
C2006       C  0.79113619  0.81124247  0.33475400     0.02400
C2007       C  0.86829045  0.85415335  0.38130158     0.09200
N2008       N  0.87159645  0.81163305  0.32138229     0.65600
H2009       H  0.82167481  0.77643994  0.28006705     0.18500
N2010       N  0.76415265  0.81150482  0.33942718     0.76100
H2011       H  0.81470779  0.84760376  0.37962683     0.10000
C2012       C  0.89416782  0.87789649  0.36367090     0.03700
C2013       C  0.91582601  0.89840651  0.39289892    -0.05000
C2014       C  0.91192570  0.89589610  0.43920211    -0.23400
C2015       C  0.88654543  0.87109222  0.45621400     0.13000
C2016       C  0.86524893  0.85080116  0.42732361    -0.12500
N2017       N  0.89835602  0.88217411  0.31661711     0.64600
H2018       H  0.93522893  0.91696853  0.37928914     0.12500
N2019       N  0.88136736  0.86648099  0.50285411     0.61300
H2020       H  0.84570033  0.83243319  0.44107894     0.08700
O2021       O  0.74888616  0.80946821  0.30559047    -0.40200
O2022       O  0.75688339  0.81649924  0.37680182    -0.39400
O2023       O  0.88167556  0.81123750  0.28370759    -0.39300
O2024       O  0.88079481  0.80419168  0.35503799    -0.37100
O2025       O  0.86602952  0.87541370  0.52194940    -0.38000
O2026       O  0.88794913  0.84948190  0.52318153    -0.34100
O2027       O  0.87778103  0.87956774  0.29165175    -0.35500
O2028       O  0.92343004  0.89117530  0.30037807    -0.39800
C2029       C  0.63142616  0.60445178  0.40947552    -0.13500
C2030       C  0.62921121  0.62956768  0.40102303     0.16900
C2031       C  0.60528029  0.63119252  0.41880412     0.03200
C2032       C  0.58498978  0.60824766  0.44578071    -0.12000
C2033       C  0.58840425  0.58400608  0.45699847    -0.03100
C2034       C  0.61179021  0.58214886  0.43761968     0.02400
C2035       C  0.65227605  0.65368402  0.37381887     0.09200
N2036       N  0.60195853  0.65646913  0.41178121     0.65600
H2037       H  0.56726568  0.61028834  0.45994009     0.18500
N2038       N  0.61636979  0.55803214  0.44646329     0.76100
H2039       H  0.64914318  0.60250286  0.39503122     0.10000
C2040       C  0.68239696  0.66631516  0.38474661     0.03700
C2041       C  0.70345819  0.68804435  0.35721553    -0.05000
C2042       C  0.69539158  0.69851125  0.31975686    -0.23400
C2043       C  0.66520841  0.68633198  0.30936558     0.13000
C2044       C  0.64414333  0.66359488  0.33579854    -0.12500
N2045       N  0.69200643  0.65777896  0.42401918     0.64600
H2046       H  0.72644313  0.69705460  0.36543168     0.12500
N2047       N  0.65549231  0.69760701  0.27355317     0.61300
H2048       H  0.62113779  0.65403639  0.32726178     0.08700
O2049       O  0.63410099  0.56028874  0.47677622    -0.40200
O2050       O  0.60817866  0.53781585  0.41804574    -0.39400
O2051       O  0.57677181  0.65327122  0.40557275    -0.39300
O2052       O  0.62359430  0.68204570  0.41678522    -0.37100
O2053       O  0.66614674  0.72498780  0.26925214    -0.38000
O2054       O  0.63350706  0.68037427  0.25023091    -0.34100
O2055       O  0.71466605  0.65533621  0.42303870    -0.35500
O2056       O  0.67969247  0.65554334  0.46072740    -0.39800
C2057       C  0.72025287  0.73313115  0.09736767    -0.13500
C2058       C  0.74501564  0.73515828  0.07702746     0.17500
C2059       C  0.76798630  0.73651559  0.10341805     0.03200
C2060       C  0.76569947  0.73624528  0.14978743    -0.12000
C2061       C  0.74146135  0.73548489  0.17024803    -0.03100
C2062       C  0.71833017  0.73363148  0.14365679     0.02400
C2063       C  0.74636037  0.73641072  0.02809024     0.09200
N2064       N  0.79399950  0.73908747  0.08393068     0.65600
H2065       H  0.78345528  0.73768683  0.17015935     0.18500
N2066       N  0.69371713  0.73409788  0.16280498     0.76100
H2067       H  0.70275241  0.73221958  0.07693348     0.10000
C2068       C  0.74422214  0.71297759  0.00242217     0.03700
C2069       C  0.74515184  0.71537218  0.95600804    -0.05000
C2070       C  0.74782628  0.74046567  0.93479312    -0.23400
C2071       C  0.75051035  0.76411477  0.96068959     0.13000
C2072       C  0.74989270  0.76181932  0.00705012    -0.12500
N2073       N  0.74075955  0.68663633  0.02277716     0.64600
H2074       H  0.74335812  0.69734344  0.93621019     0.12500
N2075       N  0.75294446  0.79011372  0.94065354     0.61300
H2076       H  0.75161054  0.77977989  0.02695443     0.08700
O2077       O  0.66828181  0.71783828  0.14711207    -0.40200
O2078       O  0.69783186  0.75376305  0.19059790    -0.39400
O2079       O  0.80575403  0.75575453  0.05106255    -0.39300
O2080       O  0.80702805  0.72711189  0.10236077    -0.37100
O2081       O  0.73589867  0.78806994  0.90933503    -0.38000
O2082       O  0.77009713  0.81506242  0.95720042    -0.34100
O2083       O  0.72318568  0.67477782  0.05447986    -0.35500
O2084       O  0.75345441  0.67379626  0.00672215    -0.39800
loop_ 
_geom_bond_atom_site_label_1 
_geom_bond_atom_site_label_2 
_geom_bond_distance 
_geom_bond_site_symmetry_2 
_ccdc_geom_bond_type 
C1            C2   1.407       .  A
C1            C6   1.405       .  A
C1          C479   1.486       .  S
C2            C3   1.403       .  A
C2            H7   1.084       .  S
C3            C4   1.400       .  A
C3          C442   1.478       .  S
C4            C5   1.401       .  A
C4            H8   1.084       .  S
C5            C6   1.402       .  A
C5          C498   1.474       .  S
C6            H9   1.084       .  S
C10          C11   1.405       .  A
C10          C15   1.406       .  A
C10         C423   1.489       .  S
C11          C12   1.406       .  A
C11          H16   1.084       .  S
C12          C13   1.405       .  A
C12         C507   1.487       .  S
C13          C14   1.400       .  A
C13          H17   1.084       .  S
C14          C15   1.403       .  A
C14         C395   1.476       .  S
C15          H18   1.083       .  S
C19          C20   1.406       .  A
C19          C24   1.406       .  A
C19         C311   1.487       .  S
C20          C21   1.405       .  A
C20          H25   1.084       .  S
C21          C22   1.400       .  A
C21         C330   1.482       .  S
C22          C23   1.402       .  A
C22          H26   1.084       .  S
C23          C24   1.405       .  A
C23         C367   1.479       .  S
C24          H27   1.084       .  S
C28          C29   1.405       .  A
C28          C33   1.405       .  A
C28         C246   1.490       .  S
C29          C30   1.403       .  A
C29          H34   1.084       .  S
C30          C31   1.404       .  A
C30         C274   1.482       .  S
C31          C32   1.405       .  A
C31          H35   1.084       .  S
C32          C33   1.404       .  A
C32         C358   1.483       .  S
C33          H36   1.084       .  S
C37          C38   1.407       .  A
C37          C42   1.407       .  A
C37         C199   1.492       .  S
C38          C39   1.402       .  A
C38          H43   1.084       .  S
C39          C40   1.400       .  A
C39         C162   1.478       .  S
C40          C41   1.405       .  A
C40          H44   1.084       .  S
C41          C42   1.407       .  A
C41         C227   1.485       .  S
C42          H45   1.083       .  S
C46          C47   1.403       .  A
C46          C51   1.406       .  A
C46         C134   1.487       .  S
C47          C48   1.403       .  A
C47          H52   1.084       .  S
C48          C49   1.404       .  A
C48         C218   1.481       .  S
C49          C50   1.403       .  A
C49          H53   1.085       .  S
C50          C51   1.407       .  A
C50         C106   1.489       .  S
C51          H54   1.082       .  S
O55         Mn81   2.087   1_565  S
O55         C603   1.271       .  A
C56         C414   1.494       .  S
C56          O89   1.272       .  A
C56          O86   1.270       .  A
O57         Mn64   2.173       .  S
O57         Mn75   2.120       .  S
O57         Mn79   2.171       .  S
O57        Mn602   2.123       .  S
O58         Mn92   2.076       .  S
O58          C68   1.270       .  A
O59         Mn75   2.113       .  S
O59          C82   1.276       .  A
O60         Mn79   2.128       .  S
O60          C87   1.258       .  A
O61         Mn81   1.968       .  S
O61       Mn1134   1.961       .  S
O61          C77   1.219       .  S
C62         C339   1.486       .  S
C62          O65   1.254       .  A
C62          O88   1.213       .  S
O63         Mn64   2.177       .  S
O63         Mn97   2.120       .  S
O63         Mn79   2.175       .  S
O63       Mn1125   2.127       .  S
Mn64         O69   2.115       .  S
Mn64       O1135   2.099       .  S
Mn64        O617   2.123       .  S
Mn64       O1633   2.168       .  S
O65       Mn1121   2.120   1_455  S
O66         Mn73   2.104       .  S
O66          C68   1.274       .  A
C67         C283   1.483       .  S
C67          O93   1.252       .  A
C67          O80   1.220       .  S
C68         C470   1.490       .  S
O69          C94   1.254       .  A
O70         Mn73   2.113       .  S
O70         Mn92   2.121       .  S
O70       Mn1627   2.177   1_445  S
O70       Mn1642   2.173   1_445  S
O71         Mn75   1.975       .  S
O71         Mn97   1.975       .  S
O71          C94   1.218       .  S
C72         C190   1.495       .  S
C72          O74   1.276       .  A
C72        O1140   1.270       .  A
Mn73         O86   2.091       .  S
Mn73        O609   1.957   1_545  S
Mn73        O601   1.960   1_545  S
O74         Mn97   2.119       .  S
Mn75         O91   2.083       .  S
Mn75         O85   2.041       .  S
O76        Mn602   2.107       .  S
O76          C78   1.274       .  A
C77         C171   1.489       .  S
C77          O95   1.257       .  A
C78         C255   1.492       .  S
C78          O91   1.270       .  A
Mn79       O1107   2.123       .  S
Mn79        O616   2.106       .  S
Mn79       O1633   2.179       .  S
O80         Mn83   1.960       .  S
O80        Mn594   1.973       .  S
Mn81        O597   2.102   1_545  S
Mn81        O578   2.116   1_545  S
Mn81         O99   1.957       .  S
C82         C302   1.494       .  S
C82         O576   1.271       .  A
Mn83         O90   2.084       .  S
Mn83         O98   2.082       .  S
Mn83       O1105   2.122   1_455  S
Mn83         O88   1.945       .  S
C84         C143   1.470       .  S
C84         O100   1.271       .  A
C84        O1132   1.269       .  A
O85         Mn97   2.044       .  S
O85          C87   1.241       .  A
C87         C451   1.492       .  S
O88        Mn594   1.950       .  S
O89         Mn92   2.095       .  S
O90        C1126   1.270   1_455  A
Mn92       O1103   1.959   1_455  S
Mn92       O1141   1.939   1_455  S
O93       Mn1106   2.100   1_455  S
C94         C386   1.486       .  S
O95        Mn600   2.110   1_545  S
O96        Mn585   2.117   1_545  S
O96         C101   1.253       .  A
Mn97        O100   2.098       .  S
O98        C1114   1.270   1_455  A
O99       Mn1134   1.937       .  S
O99         C101   1.215       .  S
C101        C115   1.489       .  S
C102        C103   1.404       .  A
C102       C1149   1.404       .  A
C102       H1154   1.068       .  S
C103        C104   1.411       .  A
C103        C108   1.486       .  S
C104        C105   1.406       .  A
C104        N109   1.437       .  S
C105        C106   1.408       .  A
C105        H110   1.076       .  S
C106       C1149   1.414       .  A
C107       C1144   1.404       .  A
C107       C1148   1.414       .  A
C107        N111   1.439       .  S
C108        C113   1.409       .  A
C108        C117   1.407       .  A
N109        O124   1.262       .  A
N109        O125   1.263       .  A
N111        O122   1.262       .  A
N111        O123   1.263       .  A
H112       C1144   1.066       .  S
C113        C114   1.398       .  A
C113        N118   1.437       .  S
C114        C115   1.408       .  A
C114        H119   1.072       .  S
C115        C116   1.414       .  A
C116        C117   1.408       .  A
C116        N120   1.432       .  S
C117        H121   1.076       .  S
N118        O128   1.262       .  A
N118        O129   1.263       .  A
N120        O127   1.262       .  A
N120        O647   1.262       .  A
O126        N641   1.261       .  A
C130        C131   1.402       .  A
C130        C135   1.403       .  A
C130        H140   1.083       .  S
C131       C1174   1.412       .  A
C131        C136   1.481       .  S
C132        C133   1.405       .  A
C132       C1173   1.412   1_455  A
C132        N137   1.438       .  S
C133       C1176   1.406   1_455  A
C133        H138   1.083       .  S
C134        C135   1.417       .  A
C134       C1175   1.406       .  A
C135        N139   1.438       .  S
C136        C141   1.406       .  A
C136        C145   1.405       .  A
N137        O152   1.262       .  A
N137        O153   1.263       .  A
N139        O150   1.263       .  A
N139        O151   1.263       .  A
C141        C142   1.396       .  A
C141        N146   1.430       .  S
C142        C143   1.403       .  A
C142        H147   1.084       .  S
C143        C144   1.414       .  A
C144        C145   1.409       .  A
C144        N148   1.439       .  S
C145       H1191   1.083       .  S
N146        O156   1.262       .  A
N146        O157   1.262       .  A
N148        O154   1.262       .  A
N148       O1197   1.262       .  A
H149       C1187   1.083       .  S
O155       N1190   1.262       .  A
C158        C163   1.405       .  A
C158       C1201   1.406   1_455  A
C158        H168   1.082       .  S
C159        C160   1.418       .  A
C159       C1200   1.406       .  A
C159        C164   1.490       .  S
C160        C161   1.404       .  A
C160        N165   1.440       .  S
C161        C162   1.401       .  A
C161        H166   1.083       .  S
C162       C1205   1.411       .  A
C163       C1204   1.412   1_455  A
C163        N167   1.437       .  S
C164        C173   1.401       .  A
C164       C1211   1.416       .  A
N165        O180   1.263       .  A
N165        O181   1.263       .  A
N167        O178   1.262       .  A
N167        O179   1.263       .  A
C169        C170   1.409       .  A
C169       C1206   1.417       .  A
C169        N174   1.437       .  S
C170       C1213   1.406       .  A
C170        H175   1.082       .  S
C171        C172   1.416       .  A
C171       C1212   1.407       .  A
C172        C173   1.396       .  A
C172        N176   1.430       .  S
C173        H177   1.083       .  S
N174        O184   1.263   1_655  A
N174        O185   1.262       .  A
N176        O182   1.262       .  A
N176        O183   1.262       .  A
C186        C187   1.403       .  A
C186        C191   1.401       .  A
C186        H196   1.083       .  S
C187       C1230   1.415       .  A
C187        C192   1.491       .  S
C188        C189   1.404       .  A
C188       C1229   1.414   1_455  A
C188        N193   1.437       .  S
C189       C1232   1.409   1_455  A
C189        H194   1.083       .  S
C190        C191   1.411       .  A
C190       C1231   1.409       .  A
C191        N195   1.422       .  S
C192        C197   1.415       .  A
C192       C1243   1.405       .  A
N193        O208   1.263       .  A
N193        O209   1.263       .  A
N195        O206   1.262       .  A
N195        O207   1.259       .  A
C197        C198   1.403       .  A
C197        N202   1.437       .  S
C198        C199   1.406       .  A
C198        H203   1.083       .  S
C199       C1242   1.417       .  A
C200        C201   1.405       .  A
C200       C1241   1.416   1_455  A
C200        N204   1.437       .  S
C201       C1234   1.405   1_455  A
C201        H205   1.083       .  S
N202        O212   1.263       .  A
N202        O213   1.263       .  A
N204        O210   1.263       .  A
N204        O211   1.263       .  A
C214        C215   1.401       .  A
C214        C219   1.403   1_554  A
C214        H224   1.083       .  S
C215        C216   1.406       .  A
C215        C220   1.477       .  S
C216        C217   1.400   1_554  A
C216       N1263   1.428       .  S
C217        C218   1.404       .  A
C217       H1264   1.084       .  S
C218        C219   1.416       .  A
C219        N223   1.436       .  S
C220        C225   1.406       .  A
C220       C1271   1.400       .  A
N221       C1258   1.429       .  S
N221        O236   1.262       .  A
N221        O237   1.262       .  A
H222       C1259   1.084       .  S
N223        O234   1.262       .  A
N223        O235   1.263       .  A
C225        C226   1.400       .  A
C225        N230   1.430       .  S
C226        C227   1.406       .  A
C226        H231   1.083       .  S
C227       C1270   1.418       .  A
C228        C229   1.404       .  A
C228       C1269   1.419       .  A
C228        N232   1.437       .  S
C229       C1262   1.399       .  A
C229        H233   1.083       .  S
N230        O240   1.262       .  A
N230        O241   1.262       .  A
N232        O238   1.263       .  A
N232        O239   1.262       .  A
C242        C243   1.401       .  A
C242        C247   1.402       .  A
C242        H773   1.084       .  S
C243        C244   1.413       .  A
C243        C248   1.482       .  S
C244        C245   1.405       .  A
C244        N249   1.438       .  S
C245        C246   1.407       .  A
C245        H250   1.083       .  S
C246        C247   1.418       .  A
C247        N772   1.437       .  S
C248        C253   1.412       .  A
C248        C257   1.401       .  A
N249        O264   1.263       .  A
N249        O265   1.263       .  A
N251        C768   1.437   1_545  S
N251        O262   1.263       .  A
N251        O263   1.263       .  A
H252        C763   1.084   1_545  S
C253        C254   1.404       .  A
C253        N258   1.438       .  S
C254        C255   1.410       .  A
C254        H259   1.083       .  S
C255        C256   1.413       .  A
C256        C257   1.401       .  A
C256        N260   1.426       .  S
C257        H261   1.084       .  S
N258        O268   1.263       .  A
N258        O269   1.263       .  A
N260        O266   1.261       .  A
N260        O267   1.262       .  A
C270        C271   1.402       .  A
C270        C275   1.406       .  A
C270        H280   1.084       .  S
C271        C272   1.406       .  A
C271        C276   1.478       .  S
C272        C794   1.399       .  A
C272        N798   1.429       .  S
C273        C793   1.405       .  A
C273        C795   1.406       .  A
C273        H278   1.083   1_565  S
C274        C275   1.414       .  A
C274        C794   1.404       .  A
C275        N279   1.435       .  S
C276        C281   1.406       .  A
C276        C806   1.401       .  A
N277        C793   1.436   1_545  S
N277        O292   1.262       .  A
N277        O293   1.262       .  A
N279        O290   1.262       .  A
N279        O291   1.262       .  A
C281        C282   1.398       .  A
C281        N286   1.429       .  S
C282        C283   1.406       .  A
C282        H287   1.083       .  S
C283        C805   1.413       .  A
C284        C285   1.408       .  A
C284        C804   1.417       .  A
C284        N288   1.434       .  S
C285        C797   1.404       .  A
C285        H289   1.081       .  S
N286        O296   1.262       .  A
N286        O297   1.262       .  A
N288        O294   1.262       .  A
N288        O295   1.262       .  A
C298        C299   1.401       .  A
C298        C303   1.399       .  A
C298        H308   1.084       .  S
C299        C300   1.415       .  A
C299        C304   1.488       .  S
C300        C301   1.409       .  A
C300        N826   1.439       .  S
C301        C302   1.412       .  A
C301        H306   1.083       .  S
C302        C303   1.413       .  A
C303        N307   1.427       .  S
C304        C309   1.416       .  A
C304        C313   1.403       .  A
N305        C821   1.439   1_545  S
N305        O320   1.263       .  A
N305        O321   1.263       .  A
N307        O318   1.261       .  A
N307        O319   1.261       .  A
C309        C310   1.408       .  A
C309        N835   1.439       .  S
C310        C311   1.406       .  A
C310        H315   1.083       .  S
C311        C312   1.415       .  A
C312        C313   1.401       .  A
C312        N316   1.437       .  S
C313        H317   1.084       .  S
N314        C830   1.439   1_545  S
N314        O324   1.262       .  A
N314        O325   1.263       .  A
N316        O322   1.262       .  A
N316        O323   1.263       .  A
C326        C327   1.405       .  A
C326        C331   1.400       .  A
C326        H336   1.083       .  S
C327        C328   1.415       .  A
C327        C332   1.486       .  S
C328        C329   1.404       .  A
C328        N333   1.437       .  S
C329        C330   1.404       .  A
C329        H334   1.083       .  S
C330        C331   1.412       .  A
C331        N335   1.437       .  S
C332        C337   1.418       .  A
C332        C341   1.399       .  A
N333        O348   1.262       .  A
N333        O349   1.263       .  A
N335        O346   1.262       .  A
N335        O347   1.263       .  A
C337        C338   1.411       .  A
C337        N863   1.439       .  S
C338        C339   1.407       .  A
C338        H864   1.083       .  S
C339        C340   1.418       .  A
C340        C341   1.391       .  A
C340        N344   1.431       .  S
C341        H345   1.085       .  S
N342        C858   1.438       .  S
N342        O352   1.263       .  A
N342        O353   1.263       .  A
H343        C859   1.082       .  S
N344        O350   1.262       .  A
N344        O351   1.262       .  A
C354        C355   1.404       .  A
C354        C359   1.402   1_554  A
C354        H364   1.083       .  S
C355        C356   1.414       .  A
C355        C360   1.486       .  S
C356        C357   1.404   1_554  A
C356        N361   1.436       .  S
C357        C358   1.403       .  A
C357        H362   1.083       .  S
C358        C359   1.413       .  A
C359        N363   1.434       .  S
C360        C365   1.415       .  A
C360        C369   1.405       .  A
N361        O376   1.262       .  A
N361        O377   1.262       .  A
N363        O374   1.262       .  A
N363        O375   1.262       .  A
C365        C366   1.402       .  A
C365        N370   1.436       .  S
C366        C367   1.402       .  A
C366        H371   1.083       .  S
C367        C368   1.409       .  A
C368        C369   1.402       .  A
C368        N893   1.430       .  S
C369        H894   1.083       .  S
N370        O380   1.262       .  A
N370        O381   1.262       .  A
N372        C889   1.431   1_545  S
N372        O378   1.262       .  A
N372        O379   1.262       .  A
H373        C890   1.083   1_545  S
C382        C383   1.403       .  A
C382        C387   1.404       .  A
C382        H392   1.083       .  S
C383        C384   1.411       .  A
C383        C388   1.479       .  S
C384        C385   1.401       .  A
C384        N389   1.438       .  S
C385        C386   1.407       .  A
C385        H390   1.083       .  S
C386        C387   1.412       .  A
C387        N391   1.427       .  S
C388        C393   1.411       .  A
C388        C397   1.402       .  A
N389        O404   1.262       .  A
N389        O405   1.262       .  A
N391        O402   1.262       .  A
N391        O403   1.262       .  A
C393        C394   1.402       .  A
C393        N398   1.433       .  S
C394        C395   1.401       .  A
C394        H399   1.083       .  S
C395        C396   1.411       .  A
C396        C397   1.403       .  A
C396        N400   1.432       .  S
C397        H401   1.083       .  S
N398        O408   1.262       .  A
N398        O409   1.262       .  A
N400        O406   1.262       .  A
N400        O407   1.262       .  A
C410        C411   1.403       .  A
C410        C415   1.403       .  A
C410        H420   1.083       .  S
C411        C412   1.412       .  A
C411        C416   1.491       .  S
C412        C413   1.403       .  A
C412        N417   1.434       .  S
C413        C414   1.409       .  A
C413        H418   1.083       .  S
C414        C415   1.420       .  A
C415        N419   1.433       .  S
C416        C421   1.414       .  A
C416        C425   1.406       .  A
N417        O432   1.262       .  A
N417        O433   1.262       .  A
N419        O430   1.261       .  A
N419        O431   1.262       .  A
C421        C422   1.405       .  A
C421        N426   1.438       .  S
C422        C423   1.406       .  A
C422        H427   1.083       .  S
C423        C424   1.415       .  A
C424        C425   1.404       .  A
C424        N428   1.437       .  S
C425        H429   1.083       .  S
N426        O436   1.263       .  A
N426        O437   1.263       .  A
N428        O434   1.263       .  A
N428        O435   1.263       .  A
C438        C439   1.404       .  A
C438        C443   1.407       .  A
C438        H448   1.083       .  S
C439        C440   1.414       .  A
C439        C444   1.487       .  S
C440        C441   1.399       .  A
C440        N445   1.434       .  S
C441        C442   1.400       .  A
C441        H446   1.083       .  S
C442        C443   1.414       .  A
C443        N447   1.438       .  S
C444        C449   1.414       .  A
C444        C453   1.397       .  A
N445        O460   1.261       .  A
N445        O461   1.262       .  A
N447        O458   1.262       .  A
N447        O459   1.263       .  A
C449        C450   1.412       .  A
C449        N454   1.432       .  S
C450        C451   1.408       .  A
C450        H455   1.082       .  S
C451        C452   1.424       .  A
C452        C453   1.393       .  A
C452        N456   1.432       .  S
C453        H457   1.084       .  S
N454        O464   1.262       .  A
N454        O465   1.262       .  A
N456        O462   1.262       .  A
N456        O463   1.262       .  A
C466        C467   1.403       .  A
C466        C471   1.399       .  A
C466        H476   1.083       .  S
C467        C468   1.414       .  A
C467        C472   1.486       .  S
C468        C469   1.402       .  A
C468        N473   1.437       .  S
C469        C470   1.409       .  A
C469        H474   1.083       .  S
C470        C471   1.412       .  A
C471        N475   1.425       .  S
C472        C477   1.414       .  A
C472        C481   1.404       .  A
N473        O488   1.263       .  A
N473        O489   1.262       .  A
N475        O486   1.262       .  A
N475        O487   1.260       .  A
C477        C478   1.400       .  A
C477        N482   1.437       .  S
C478        C479   1.404       .  A
C478        H483   1.083       .  S
C479        C480   1.417       .  A
C480        C481   1.404       .  A
C480        N484   1.438       .  S
C481        H485   1.083       .  S
N482        O492   1.263       .  A
N482        O493   1.263       .  A
N484        O490   1.262       .  A
N484        O491   1.263       .  A
C494        C495   1.403       .  A
C494        C499   1.402       .  A
C494        H504   1.084       .  S
C495        C496   1.414       .  A
C495        C500   1.479       .  S
C496        C497   1.402       .  A
C496        N501   1.438       .  S
C497        C498   1.402       .  A
C497        H502   1.084       .  S
C498        C499   1.411       .  A
C499        N503   1.437       .  S
C500        C505   1.413       .  A
C500        C509   1.401       .  A
N501        O516   1.262       .  A
N501        O517   1.263       .  A
N503        O514   1.262       .  A
N503        O515   1.262       .  A
C505        C506   1.405   1_554  A
C505        N510   1.439       .  S
C506        C507   1.407       .  A
C506        H511   1.083       .  S
C507        C508   1.416       .  A
C508        C509   1.401   1_556  A
C508        N512   1.436       .  S
C509        H513   1.084       .  S
N510        O520   1.263       .  A
N510        O521   1.263       .  A
N512        O518   1.262       .  A
N512        O519   1.263       .  A
C522        C523   1.410       .  A
C522        C527   1.409       .  A
C522       C1000   1.494       .  S
C523        C524   1.404       .  A
C523        H528   1.084       .  S
C524        C525   1.397       .  A
C524        C963   1.479       .  S
C525        C526   1.403       .  A
C525        H529   1.084       .  S
C526        C527   1.407       .  A
C526       C1019   1.483       .  S
C527        H530   1.083       .  S
C531        C532   1.404       .  A
C531        C536   1.408       .  A
C531        C944   1.492       .  S
C532        C533   1.403       .  A
C532        H537   1.084       .  S
C533        C534   1.403       .  A
C533       C1028   1.484       .  S
C534        C535   1.403       .  A
C534        H538   1.084       .  S
C535        C536   1.408       .  A
C535        C916   1.487       .  S
C536        H539   1.083       .  S
C540        C541   1.403       .  A
C540        C545   1.404       .  A
C540        C832   1.484       .  S
C541        C542   1.404       .  A
C541        H546   1.084       .  S
C542        C543   1.402       .  A
C542        C851   1.481       .  S
C543        C544   1.403       .  A
C543        H547   1.084       .  S
C544        C545   1.404       .  A
C544        C888   1.478       .  S
C545        H548   1.084       .  S
C549        C550   1.404       .  A
C549        C554   1.403       .  A
C549        C767   1.486       .  S
C550        C551   1.405       .  A
C550        H555   1.083       .  S
C551        C552   1.402       .  A
C551        C795   1.484       .  S
C552        C553   1.405       .  A
C552        H556   1.084       .  S
C553        C554   1.405       .  A
C553        C879   1.483       .  S
C554        H557   1.084       .  S
C558        C559   1.404       .  A
C558        C563   1.403       .  A
C558        C720   1.487       .  S
C559        C560   1.404       .  A
C559        H564   1.084       .  S
C560        C561   1.403       .  A
C560        C683   1.483       .  S
C561        C562   1.405       .  A
C561        H565   1.083       .  S
C562        C563   1.404       .  A
C562        C748   1.480       .  S
C563        H566   1.084       .  S
C567        C568   1.402       .  A
C567        C572   1.402       .  A
C567        C655   1.479       .  S
C568        C569   1.402       .  A
C568        H573   1.084       .  S
C569        C570   1.402       .  A
C569        C739   1.475       .  S
C570        C571   1.401       .  A
C570        H574   1.084       .  S
C571        C572   1.404       .  A
C571        C627   1.483       .  S
C572        H575   1.083       .  S
O576       Mn602   2.088       .  S
C577        C935   1.491       .  S
C577        O610   1.273       .  A
C577        O607   1.271       .  A
O578       Mn585   2.169       .  S
O578       Mn596   2.120       .  S
O578       Mn600   2.173       .  S
O579       Mn613   2.089       .  S
O579        C589   1.272       .  A
O580       Mn596   2.112       .  S
O580        C603   1.275       .  A
O581       Mn600   2.130       .  S
O581        C608   1.256       .  A
O582      Mn1655   1.960       .  S
O582       Mn602   1.968       .  S
O582        C598   1.219       .  S
C583        C860   1.490       .  S
C583        O586   1.254       .  A
C583        O609   1.214       .  S
O584      Mn1646   2.119       .  S
O584       Mn585   2.167       .  S
O584       Mn618   2.114       .  S
O584       Mn600   2.174       .  S
Mn585      O1656   2.112       .  S
Mn585       O590   2.125       .  S
Mn585      O1112   2.178   1_565  S
O586      Mn1642   2.122   1_455  S
O587       Mn594   2.112       .  S
O587        C589   1.275       .  A
C588        C804   1.492       .  S
C588        O614   1.253       .  A
C588        O601   1.218       .  S
C589        C991   1.499       .  S
O590        C615   1.257       .  A
O591      Mn1106   2.171   1_455  S
O591       Mn594   2.116       .  S
O591       Mn613   2.119       .  S
O591      Mn1121   2.174   1_455  S
O592       Mn596   1.957       .  S
O592       Mn618   1.970       .  S
O592        C615   1.217       .  S
C593        C711   1.494       .  S
C593       O1661   1.270       .  A
C593        O595   1.274       .  A
Mn594       O607   2.089       .  S
O595       Mn618   2.109       .  S
Mn596       O612   2.093       .  S
Mn596       O606   1.958       .  S
O597        C599   1.274       .  A
C598        C692   1.489       .  S
C598        O616   1.255       .  A
C599        C776   1.491       .  S
C599        O612   1.272       .  A
Mn600      O1628   2.126       .  S
Mn600      O1112   2.174   1_565  S
O601       Mn604   1.949       .  S
Mn602       O620   1.950       .  S
C603        C823   1.496       .  S
Mn604       O611   2.079       .  S
Mn604       O619   2.077       .  S
Mn604      O1626   2.119   1_455  S
Mn604       O609   1.945       .  S
C605        C664   1.482       .  S
C605       O1653   1.269       .  A
C605        O621   1.277       .  A
O606       Mn618   1.959       .  S
O606        C608   1.213       .  S
C608        C972   1.492       .  S
O610       Mn613   2.096       .  S
O611       C1647   1.270   1_455  A
Mn613      O1624   1.960   1_455  S
Mn613      O1662   1.943   1_455  S
O614      Mn1627   2.113   1_455  S
C615        C907   1.496       .  S
O617        C622   1.252       .  A
Mn618       O621   2.110       .  S
O619       C1635   1.269   1_455  A
O620      Mn1655   1.942       .  S
O620        C622   1.214       .  S
C622        C636   1.492       .  S
C623        C624   1.403       .  A
C623       C1670   1.401       .  A
C623       H1675   1.080       .  S
C624        C625   1.411       .  A
C624        C629   1.483       .  S
C625        C626   1.402       .  A
C625        N630   1.434       .  S
C626        C627   1.405       .  A
C626        H631   1.082       .  S
C627       C1670   1.414       .  A
C628       C1665   1.401       .  A
C628       C1669   1.413       .  A
C628        N632   1.438       .  S
C629        C634   1.407       .  A
C629        C638   1.403       .  A
N630        O645   1.262       .  A
N630        O646   1.262       .  A
N632        O643   1.262       .  A
N632        O644   1.263       .  A
H633       C1665   1.078       .  S
C634        C635   1.396       .  A
C634        N639   1.437       .  S
C635        C636   1.410       .  A
C635        H640   1.081       .  S
C636        C637   1.419       .  A
C637        C638   1.408       .  A
C637        N641   1.433       .  S
C638        H642   1.082       .  S
N639        O649   1.262       .  A
N639        O650   1.263       .  A
N641        O648   1.262       .  A
C651        C652   1.401       .  A
C651        C656   1.400       .  A
C651        H661   1.083       .  S
C652       C1695   1.413       .  A
C652        C657   1.478       .  S
C653       C1694   1.416       .  A
C653        C654   1.405       .  A
C653        N658   1.439       .  S
C654       C1697   1.403   1_455  A
C654        H659   1.083       .  S
C655       C1696   1.404       .  A
C655        C656   1.413       .  A
C656        N660   1.436       .  S
C657        C662   1.413       .  A
C657        C666   1.401       .  A
N658        O673   1.262       .  A
N658        O674   1.263       .  A
N660        O671   1.262       .  A
N660        O672   1.262       .  A
C662        C663   1.403       .  A
C662        N667   1.439       .  S
C663        C664   1.406       .  A
C663        H668   1.084       .  S
C664        C665   1.408       .  A
C665        C666   1.400       .  A
C665        N669   1.428       .  S
C666       H1712   1.084       .  S
N667        O677   1.263       .  A
N667        O678   1.263       .  A
N669        O675   1.260       .  A
N669       O1718   1.261       .  A
H670       C1708   1.084       .  S
O676       N1711   1.261       .  A
C679       C1722   1.404   1_455  A
C679        C684   1.406       .  A
C679        H689   1.083       .  S
C680       C1721   1.406       .  A
C680        C681   1.415       .  A
C680        C685   1.489       .  S
C681        C682   1.401       .  A
C681        N686   1.439       .  S
C682        C683   1.403       .  A
C682        H687   1.083       .  S
C683       C1726   1.415       .  A
C684       C1725   1.415       .  A
C684        N688   1.438       .  S
C685       C1732   1.415       .  A
C685        C694   1.402       .  A
N686        O701   1.263       .  A
N686        O702   1.263       .  A
N688        O699   1.263       .  A
N688        O700   1.262       .  A
C690       C1727   1.413       .  A
C690        C691   1.407       .  A
C690        N695   1.436       .  S
C691       C1734   1.407       .  A
C691        H696   1.082       .  S
C692       C1733   1.407       .  A
C692        C693   1.416       .  A
C693        C694   1.395       .  A
C693        N697   1.430       .  S
C694        H698   1.083       .  S
N695        O705   1.262       .  A
N695        O706   1.263       .  A
N697        O703   1.262       .  A
N697        O704   1.262       .  A
C707        C708   1.403       .  A
C707        C712   1.402       .  A
C707        H717   1.083       .  S
C708       C1751   1.414       .  A
C708        C713   1.490       .  S
C709       C1750   1.414   1_455  A
C709        C710   1.402       .  A
C709        N714   1.437       .  S
C710       C1753   1.410   1_455  A
C710        H715   1.082       .  S
C711       C1752   1.410       .  A
C711        C712   1.415       .  A
C712        N716   1.428       .  S
C713        C718   1.415       .  A
C713       C1764   1.406       .  A
N714        O729   1.263       .  A
N714        O730   1.263       .  A
N716        O727   1.262       .  A
N716        O728   1.260       .  A
C718        C719   1.400       .  A
C718        N723   1.437       .  S
C719        C720   1.404       .  A
C719        H724   1.083       .  S
C720       C1763   1.416       .  A
C721       C1762   1.416       .  A
C721        C722   1.405       .  A
C721        N725   1.438       .  S
C722       C1755   1.406   1_455  A
C722        H726   1.083       .  S
N723        O733   1.263       .  A
N723        O734   1.262       .  A
N725        O731   1.263       .  A
N725        O732   1.263       .  A
C735        C736   1.402       .  A
C735        C740   1.401   1_554  A
C735        H745   1.083       .  S
C736        C737   1.410       .  A
C736        C741   1.476       .  S
C737        C738   1.401   1_554  A
C737       N1784   1.434       .  S
C738        C739   1.402       .  A
C738       H1785   1.083       .  S
C739        C740   1.412       .  A
C740        N744   1.435       .  S
C741        C746   1.408       .  A
C741       C1792   1.402       .  A
N742       C1779   1.435       .  S
N742        O757   1.262       .  A
N742        O758   1.262       .  A
H743       C1780   1.083       .  S
N744        O755   1.262       .  A
N744        O756   1.263       .  A
C746        C747   1.400       .  A
C746        N751   1.434       .  S
C747        C748   1.405       .  A
C747        H752   1.083       .  S
C748       C1791   1.414       .  A
C749       C1790   1.414       .  A
C749        C750   1.401       .  A
C749        N753   1.436       .  S
C750       C1783   1.402       .  A
C750        H754   1.083       .  S
N751        O761   1.262       .  A
N751        O762   1.262       .  A
N753        O759   1.263       .  A
N753        O760   1.262       .  A
C763        C764   1.402       .  A
C763        C768   1.400       .  A
C764        C765   1.415       .  A
C764        C769   1.484       .  S
C765        C766   1.406       .  A
C765        N770   1.439       .  S
C766        C767   1.406       .  A
C766        H771   1.083       .  S
C767        C768   1.414       .  A
C769        C774   1.415       .  A
C769        C778   1.401       .  A
N770        O785   1.263       .  A
N770        O786   1.263       .  A
N772        O783   1.263       .  A
N772        O784   1.262       .  A
C774        C775   1.406       .  A
C774        N779   1.439       .  S
C775        C776   1.409       .  A
C775        H780   1.083       .  S
C776        C777   1.413       .  A
C777        C778   1.398       .  A
C777        N781   1.427   1_565  S
C778        H782   1.084   1_565  S
N779        O789   1.262       .  A
N779        O790   1.263       .  A
N781        O787   1.261       .  A
N781        O788   1.262       .  A
C791        C792   1.403       .  A
C791        C796   1.402       .  A
C791        H801   1.083       .  S
C792        C793   1.412       .  A
C792        C797   1.484       .  S
C794        H799   1.084       .  S
C795        C796   1.414       .  A
C796        N800   1.438       .  S
C797        C802   1.409       .  A
N798        O813   1.262       .  A
N798        O814   1.262       .  A
N800        O811   1.263       .  A
N800        O812   1.263       .  A
C802        C803   1.399       .  A
C802        N807   1.438       .  S
C803        C804   1.410       .  A
C803        H808   1.080       .  S
C805        C806   1.405       .  A
C805        N809   1.428       .  S
C806        H810   1.083       .  S
N807        O817   1.263       .  A
N807        O818   1.263   1_565  A
N809        O815   1.262       .  A
N809        O816   1.262       .  A
C819        C820   1.399       .  A
C819        C824   1.400       .  A
C819        H829   1.084       .  S
C820        C821   1.412       .  A
C820        C825   1.484       .  S
C821        C822   1.406       .  A
C822        C823   1.412       .  A
C822        H827   1.082   1_565  S
C823        C824   1.414       .  A
C824        N828   1.426       .  S
C825        C830   1.415       .  A
C825        C834   1.403       .  A
N826        O841   1.262       .  A
N826        O842   1.263       .  A
N828        O839   1.261       .  A
N828        O840   1.261       .  A
C830        C831   1.406       .  A
C831        C832   1.405       .  A
C831        H836   1.083   1_565  S
C832        C833   1.414       .  A
C833        C834   1.401       .  A
C833        N837   1.437       .  S
C834        H838   1.084       .  S
N835        O845   1.262       .  A
N835        O846   1.263       .  A
N837        O843   1.263       .  A
N837        O844   1.263       .  A
C847        C848   1.405       .  A
C847        C852   1.408       .  A
C847        H857   1.083       .  S
C848        C849   1.413       .  A
C848        C853   1.487       .  S
C849        C850   1.396       .  A
C849        N854   1.434   1_565  S
C850        C851   1.400       .  A
C850        H855   1.084   1_565  S
C851        C852   1.416       .  A
C852        N856   1.437       .  S
C853        C858   1.417       .  A
C853        C862   1.399       .  A
N854        O869   1.262       .  A
N854        O870   1.261       .  A
N856        O867   1.262       .  A
N856        O868   1.263       .  A
C858        C859   1.412       .  A
C859        C860   1.408       .  A
C860        C861   1.418       .  A
C861        C862   1.392       .  A
C861        N865   1.431       .  S
C862        H866   1.084       .  S
N863        O873   1.262       .  A
N863        O874   1.263       .  A
N865        O871   1.262       .  A
N865        O872   1.262       .  A
C875        C876   1.402       .  A
C875        C880   1.403   1_554  A
C875        H885   1.083       .  S
C876        C877   1.411       .  A
C876        C881   1.481       .  S
C877        C878   1.402   1_554  A
C877        N882   1.435   1_565  S
C878        C879   1.404       .  A
C878        H883   1.083   1_565  S
C879        C880   1.415       .  A
C880        N884   1.436       .  S
C881        C886   1.411       .  A
C881        C890   1.403       .  A
N882        O897   1.262       .  A
N882        O898   1.262       .  A
N884        O895   1.263       .  A
N884        O896   1.262       .  A
C886        C887   1.401       .  A
C886        N891   1.432       .  S
C887        C888   1.402       .  A
C887        H892   1.084       .  S
C888        C889   1.411       .  A
C889        C890   1.401       .  A
N891        O901   1.262       .  A
N891        O902   1.262       .  A
N893        O899   1.262       .  A
N893        O900   1.262       .  A
C903        C904   1.405       .  A
C903        C908   1.411       .  A
C903        H913   1.082       .  S
C904        C905   1.409       .  A
C904        C909   1.487       .  S
C905        C906   1.399       .  A
C905        N910   1.437       .  S
C906        C907   1.410       .  A
C906        H911   1.080       .  S
C907        C908   1.418       .  A
C908        N912   1.434       .  S
C909        C914   1.410       .  A
C909        C918   1.404       .  A
N910        O925   1.262       .  A
N910        O926   1.263       .  A
N912        O923   1.262       .  A
N912        O924   1.262       .  A
C914        C915   1.402       .  A
C914        N919   1.430       .  S
C915        C916   1.405       .  A
C915        H920   1.083       .  S
C916        C917   1.415       .  A
C917        C918   1.405       .  A
C917        N921   1.437       .  S
C918        H922   1.083       .  S
N919        O929   1.262       .  A
N919        O930   1.261       .  A
N921        O927   1.263       .  A
N921        O928   1.262       .  A
C931        C932   1.402       .  A
C931        C936   1.401       .  A
C931        H941   1.083       .  S
C932        C933   1.411       .  A
C932        C937   1.488       .  S
C933        C934   1.403       .  A
C933        N938   1.433       .  S
C934        C935   1.408       .  A
C934        H939   1.083       .  S
C935        C936   1.417       .  A
C936        N940   1.429       .  S
C937        C942   1.412       .  A
C937        C946   1.404       .  A
N938        O953   1.261       .  A
N938        O954   1.262       .  A
N940        O951   1.262       .  A
N940        O952   1.262       .  A
C942        C943   1.405       .  A
C942        N947   1.437       .  S
C943        C944   1.408       .  A
C943        H948   1.082       .  S
C944        C945   1.416       .  A
C945        C946   1.404       .  A
C945        N949   1.435       .  S
C946        H950   1.083       .  S
N947        O957   1.262       .  A
N947        O958   1.263       .  A
N949        O955   1.263       .  A
N949        O956   1.262       .  A
C959        C960   1.404       .  A
C959        C964   1.402       .  A
C959        H969   1.084       .  S
C960        C961   1.410       .  A
C960        C965   1.480       .  S
C961        C962   1.403       .  A
C961        N966   1.430       .  S
C962        C963   1.403       .  A
C962        H967   1.084       .  S
C963        C964   1.407       .  A
C964        N968   1.429       .  S
C965        C970   1.410       .  A
C965        C974   1.395       .  A
N966        O981   1.262       .  A
N966        O982   1.262       .  A
N968        O979   1.262       .  A
N968        O980   1.262       .  A
C970        C971   1.409       .  A
C970        N975   1.429       .  S
C971        C972   1.408       .  A
C971        H976   1.083       .  S
C972        C973   1.422       .  A
C973        C974   1.396       .  A
C973        N977   1.431       .  S
C974        H978   1.084       .  S
N975        O985   1.262       .  A
N975        O986   1.262       .  A
N977        O983   1.262       .  A
N977        O984   1.262       .  A
C987        C988   1.403       .  A
C987        C992   1.401       .  A
C987        H997   1.083       .  S
C988        C989   1.416       .  A
C988        C993   1.494       .  S
C989        C990   1.407       .  A
C989        N994   1.437       .  S
C990        C991   1.411       .  A
C990        H995   1.083       .  S
C991        C992   1.415       .  A
C992        N996   1.426       .  S
C993        C998   1.416       .  A
C993       C1002   1.405       .  A
N994       O1009   1.263       .  A
N994       O1010   1.263       .  A
N996       O1007   1.262       .  A
N996       O1008   1.260       .  A
C998        C999   1.403       .  A
C998       N1003   1.437       .  S
C999       C1000   1.405       .  A
C999       H1004   1.083       .  S
C1000      C1001   1.418       .  A
C1001      C1002   1.407       .  A
C1001      N1005   1.436       .  S
C1002      H1006   1.083       .  S
N1003      O1013   1.263       .  A
N1003      O1014   1.263       .  A
N1005      O1011   1.262       .  A
N1005      O1012   1.263       .  A
C1015      C1016   1.401       .  A
C1015      C1020   1.402       .  A
C1015      H1025   1.084       .  S
C1016      C1017   1.411       .  A
C1016      C1021   1.478       .  S
C1017      C1018   1.402       .  A
C1017      N1022   1.437       .  S
C1018      C1019   1.406       .  A
C1018      H1023   1.083       .  S
C1019      C1020   1.414       .  A
C1020      N1024   1.435       .  S
C1021      C1026   1.409       .  A
C1021      C1030   1.401       .  A
N1022      O1037   1.262       .  A
N1022      O1038   1.262       .  A
N1024      O1035   1.263       .  A
N1024      O1036   1.262       .  A
C1026      C1027   1.402   1_554  A
C1026      N1031   1.435       .  S
C1027      C1028   1.406       .  A
C1027      H1032   1.084       .  S
C1028      C1029   1.416       .  A
C1029      C1030   1.402   1_556  A
C1029      N1033   1.437       .  S
C1030      H1034   1.084       .  S
N1031      O1041   1.262       .  A
N1031      O1042   1.262       .  A
N1033      O1039   1.262       .  A
N1033      O1040   1.263       .  A
C1043      C1044   1.407       .  A
C1043      C1048   1.405       .  A
C1043      C1521   1.486       .  S
C1044      C1045   1.402       .  A
C1044      H1049   1.084       .  S
C1045      C1046   1.400       .  A
C1045      C1484   1.477       .  S
C1046      C1047   1.402       .  A
C1046      H1050   1.084       .  S
C1047      C1048   1.402       .  A
C1047      C1540   1.475       .  S
C1048      H1051   1.084       .  S
C1052      C1053   1.405       .  A
C1052      C1057   1.406       .  A
C1052      C1465   1.490       .  S
C1053      C1054   1.406       .  A
C1053      H1058   1.084       .  S
C1054      C1055   1.405       .  A
C1054      C1549   1.487       .  S
C1055      C1056   1.400       .  A
C1055      H1059   1.084       .  S
C1056      C1057   1.404       .  A
C1056      C1437   1.479       .  S
C1057      H1060   1.083       .  S
C1061      C1062   1.408       .  A
C1061      C1066   1.407       .  A
C1061      C1353   1.492       .  S
C1062      C1063   1.407       .  A
C1062      H1067   1.083       .  S
C1063      C1064   1.400       .  A
C1063      C1372   1.483       .  S
C1064      C1065   1.401       .  A
C1064      H1068   1.084       .  S
C1065      C1066   1.405       .  A
C1065      C1409   1.479       .  S
C1066      H1069   1.084       .  S
C1070      C1071   1.406       .  A
C1070      C1075   1.406       .  A
C1070      C1288   1.490       .  S
C1071      C1072   1.402       .  A
C1071      H1076   1.084       .  S
C1072      C1073   1.403       .  A
C1072      C1316   1.480       .  S
C1073      C1074   1.405       .  A
C1073      H1077   1.084       .  S
C1074      C1075   1.405       .  A
C1074      C1400   1.485       .  S
C1075      H1078   1.084       .  S
C1079      C1080   1.405       .  A
C1079      C1084   1.406       .  A
C1079      C1241   1.489       .  S
C1080      C1081   1.401       .  A
C1080      H1085   1.084       .  S
C1081      C1082   1.401       .  A
C1081      C1204   1.479       .  S
C1082      C1083   1.406       .  A
C1082      H1086   1.083       .  S
C1083      C1084   1.407       .  A
C1083      C1269   1.487   1_655  S
C1084      H1087   1.083   1_655  S
C1088      C1089   1.404   1_455  A
C1088      C1093   1.406       .  A
C1088      C1176   1.488   1_455  S
C1089      C1090   1.404   1_655  A
C1089      H1094   1.084       .  S
C1090      C1091   1.405       .  A
C1090      C1260   1.483   1_455  S
C1091      C1092   1.402       .  A
C1091      H1095   1.085       .  S
C1092      C1093   1.407       .  A
C1092      C1148   1.489       .  S
C1093      H1096   1.082       .  S
O1097     Mn1123   2.092   1_565  S
O1097      C1645   1.272       .  A
C1098      C1456   1.495       .  S
C1098      O1131   1.272       .  A
C1098      O1128   1.270       .  A
O1099     Mn1106   2.167       .  S
O1099     Mn1117   2.120       .  S
O1099     Mn1121   2.171       .  S
O1099     Mn1644   2.115       .  S
O1100     Mn1134   2.076       .  S
O1100      C1110   1.269       .  A
O1101     Mn1117   2.107       .  S
O1101      C1124   1.274       .  A
O1102     Mn1121   2.120       .  S
O1102      C1129   1.254       .  A
O1103     Mn1123   1.963       .  S
O1103      C1119   1.218       .  S
C1104      C1381   1.488       .  S
C1104      O1107   1.254       .  A
C1104      O1130   1.213       .  S
O1105     Mn1106   2.173       .  S
O1105     Mn1139   2.120       .  S
O1105     Mn1121   2.174       .  S
Mn1106     O1111   2.113       .  S
Mn1106     O1659   2.121       .  S
O1108     Mn1115   2.106       .  S
O1108      C1110   1.274       .  A
C1109      C1325   1.484       .  S
C1109      O1135   1.252       .  A
C1109      O1122   1.221       .  S
C1110      C1512   1.490       .  S
O1111      C1136   1.255       .  A
O1112     Mn1115   2.112       .  S
O1112     Mn1134   2.123       .  S
O1113     Mn1117   1.964       .  S
O1113     Mn1139   1.965       .  S
O1113      C1136   1.219       .  S
C1114      C1232   1.494       .  S
C1114      O1116   1.276       .  A
Mn1115     O1128   2.090       .  S
Mn1115     O1651   1.955   1_545  S
Mn1115     O1643   1.962   1_545  S
O1116     Mn1139   2.117       .  S
Mn1117     O1133   2.092       .  S
Mn1117     O1127   1.955       .  S
O1118     Mn1644   2.103       .  S
O1118      C1120   1.274       .  A
C1119      C1213   1.489       .  S
C1119      O1137   1.257       .  A
C1120      C1297   1.493       .  S
C1120      O1133   1.272       .  A
Mn1121     O1658   2.105       .  S
O1122     Mn1636   1.975       .  S
O1122     Mn1125   1.959       .  S
Mn1123     O1639   2.099   1_545  S
Mn1123     O1620   2.115   1_545  S
Mn1123     O1141   1.960       .  S
C1124      C1344   1.500       .  S
C1124      O1618   1.273       .  A
Mn1125     O1132   2.083       .  S
Mn1125     O1140   2.079       .  S
Mn1125     O1130   1.941       .  S
C1126      C1185   1.470       .  S
C1126      O1142   1.273       .  A
O1127     Mn1139   1.962       .  S
O1127      C1129   1.214       .  S
C1129      C1493   1.489       .  S
O1130     Mn1636   1.945       .  S
O1131     Mn1134   2.097       .  S
C1136      C1428   1.486       .  S
O1137     Mn1642   2.113   1_545  S
O1138     Mn1627   2.115   1_545  S
O1138      C1143   1.252       .  A
Mn1139     O1142   2.103       .  S
O1141      C1143   1.215       .  S
C1143      C1157   1.490       .  S
C1144      C1145   1.405       .  A
C1145      C1146   1.411   1_455  A
C1145      C1150   1.486   1_455  S
C1146      C1147   1.406       .  A
C1146      N1151   1.437       .  S
C1147      C1148   1.408   1_655  A
C1147      H1152   1.076       .  S
C1149      N1153   1.439       .  S
C1150      C1155   1.408       .  A
C1150      C1159   1.407   1_655  A
N1151      O1166   1.262       .  A
N1151      O1167   1.262       .  A
N1153      O1164   1.263       .  A
N1153      O1165   1.263       .  A
C1155      C1156   1.399       .  A
C1155      N1160   1.437       .  S
C1156      C1157   1.409       .  A
C1156      H1161   1.063       .  S
C1157      C1158   1.414   1_655  A
C1158      C1159   1.410       .  A
C1158      N1162   1.433       .  S
C1159      H1163   1.072       .  S
N1160      O1170   1.262       .  A
N1160      O1171   1.263       .  A
N1162      O1689   1.262   1_455  A
N1162      O1169   1.262       .  A
O1168      N1683   1.261       .  A
C1172      C1173   1.402       .  A
C1172      C1177   1.403       .  A
C1172      H1182   1.083       .  S
C1173      C1178   1.483       .  S
C1174      C1175   1.405       .  A
C1174      N1179   1.438       .  S
C1175      H1180   1.083       .  S
C1176      C1177   1.417       .  A
C1177      N1181   1.438       .  S
C1178      C1183   1.409   1_655  A
C1178      C1187   1.406       .  A
N1179      O1194   1.262       .  A
N1179      O1195   1.263       .  A
N1181      O1192   1.263       .  A
N1181      O1193   1.263       .  A
C1183      C1184   1.399   1_455  A
C1183      N1188   1.434       .  S
C1184      C1185   1.402       .  A
C1184      H1189   1.084   1_655  S
C1185      C1186   1.413       .  A
C1186      C1187   1.408       .  A
C1186      N1190   1.439       .  S
N1188      O1198   1.262   1_455  A
N1188      O1199   1.262       .  A
N1190      O1196   1.263       .  A
C1200      C1205   1.404       .  A
C1200      H1210   1.083       .  S
C1201      C1202   1.418       .  A
C1201      C1206   1.490       .  S
C1202      C1203   1.404       .  A
C1202      N1207   1.440       .  S
C1203      C1204   1.401       .  A
C1203      H1208   1.083       .  S
C1205      N1209   1.436       .  S
C1206      C1215   1.401       .  A
N1207      O1222   1.263       .  A
N1207      O1223   1.263       .  A
N1209      O1220   1.262       .  A
N1209      O1221   1.262       .  A
C1211      C1212   1.409       .  A
C1211      N1216   1.436       .  S
C1212      H1217   1.082       .  S
C1213      C1214   1.416       .  A
C1214      C1215   1.395       .  A
C1214      N1218   1.430       .  S
C1215      H1219   1.083       .  S
N1216      O1226   1.263       .  A
N1216      O1227   1.262       .  A
N1218      O1224   1.262       .  A
N1218      O1225   1.262       .  A
C1228      C1229   1.402       .  A
C1228      C1233   1.401       .  A
C1228      H1238   1.083       .  S
C1229      C1234   1.490       .  S
C1230      C1231   1.405       .  A
C1230      N1235   1.437       .  S
C1231      H1236   1.083       .  S
C1232      C1233   1.411       .  A
C1233      N1237   1.423       .  S
C1234      C1239   1.415       .  A
N1235      O1250   1.262       .  A
N1235      O1251   1.263       .  A
N1237      O1248   1.262       .  A
N1237      O1249   1.260       .  A
C1239      C1240   1.403       .  A
C1239      N1244   1.437       .  S
C1240      C1241   1.405       .  A
C1240      H1245   1.083       .  S
C1242      C1243   1.405       .  A
C1242      N1246   1.437       .  S
C1243      H1247   1.083       .  S
N1244      O1254   1.263       .  A
N1244      O1255   1.262       .  A
N1246      O1252   1.263       .  A
N1246      O1253   1.263       .  A
C1256      C1257   1.400   1_655  A
C1256      C1261   1.404   1_554  A
C1256      H1266   1.083       .  S
C1257      C1258   1.406       .  A
C1257      C1262   1.476       .  S
C1258      C1259   1.400   1_554  A
C1259      C1260   1.405   1_455  A
C1260      C1261   1.417       .  A
C1261      N1265   1.437       .  S
C1262      C1267   1.405   1_455  A
N1263      O1278   1.262       .  A
N1263      O1279   1.262       .  A
N1265      O1276   1.262       .  A
N1265      O1277   1.263       .  A
C1267      C1268   1.399       .  A
C1267      N1272   1.429       .  S
C1268      C1269   1.407   1_655  A
C1268      H1273   1.083       .  S
C1270      C1271   1.404       .  A
C1270      N1274   1.437       .  S
C1271      H1275   1.083       .  S
N1272      O1282   1.262       .  A
N1272      O1283   1.262       .  A
N1274      O1280   1.263       .  A
N1274      O1281   1.262       .  A
C1284      C1285   1.401       .  A
C1284      C1289   1.402       .  A
C1284      H1815   1.084       .  S
C1285      C1286   1.413       .  A
C1285      C1290   1.484       .  S
C1286      C1287   1.406       .  A
C1286      N1291   1.439       .  S
C1287      C1288   1.407       .  A
C1287      H1292   1.083       .  S
C1288      C1289   1.417       .  A
C1289      N1814   1.437       .  S
C1290      C1295   1.413       .  A
C1290      C1299   1.401       .  A
N1291      O1306   1.263       .  A
N1291      O1307   1.263       .  A
N1293      C1810   1.437   1_545  S
N1293      O1304   1.263       .  A
N1293      O1305   1.263       .  A
H1294      C1805   1.084   1_545  S
C1295      C1296   1.405       .  A
C1295      N1300   1.438       .  S
C1296      C1297   1.409       .  A
C1296      H1301   1.083       .  S
C1297      C1298   1.414       .  A
C1298      C1299   1.401       .  A
C1298      N1302   1.426       .  S
C1299      H1303   1.084       .  S
N1300      O1310   1.263       .  A
N1300      O1311   1.262       .  A
N1302      O1308   1.261       .  A
N1302      O1309   1.262       .  A
C1312      C1313   1.403       .  A
C1312      C1317   1.405       .  A
C1312      H1322   1.083       .  S
C1313      C1314   1.406       .  A
C1313      C1318   1.479       .  S
C1314      C1836   1.399       .  A
C1314      N1840   1.429       .  S
C1315      C1835   1.403       .  A
C1315      C1837   1.405   1_545  A
C1315      H1320   1.083       .  S
C1316      C1836   1.404       .  A
C1316      C1317   1.413       .  A
C1317      N1321   1.434       .  S
C1318      C1323   1.407       .  A
C1318      C1848   1.401       .  A
N1319      C1835   1.431       .  S
N1319      O1334   1.262       .  A
N1319      O1335   1.261       .  A
N1321      O1332   1.262       .  A
N1321      O1333   1.262       .  A
C1323      C1324   1.399       .  A
C1323      N1328   1.432       .  S
C1324      C1325   1.407       .  A
C1324      H1329   1.083       .  S
C1325      C1847   1.414       .  A
C1326      C1846   1.418       .  A
C1326      C1327   1.408       .  A
C1326      N1330   1.434       .  S
C1327      C1839   1.404       .  A
C1327      H1331   1.081       .  S
N1328      O1338   1.262       .  A
N1328      O1339   1.262       .  A
N1330      O1336   1.262       .  A
N1330      O1337   1.262       .  A
C1340      C1341   1.401       .  A
C1340      C1345   1.401       .  A
C1340      H1350   1.084       .  S
C1341      C1342   1.415       .  A
C1341      C1346   1.491       .  S
C1342      C1343   1.409       .  A
C1342      N1868   1.440       .  S
C1343      C1344   1.413       .  A
C1343      H1348   1.083       .  S
C1344      C1345   1.419       .  A
C1345      N1349   1.431       .  S
C1346      C1351   1.417       .  A
C1346      C1355   1.404       .  A
N1347      C1863   1.438   1_545  S
N1347      O1362   1.263       .  A
N1347      O1363   1.263       .  A
N1349      O1360   1.262       .  A
N1349      O1361   1.261       .  A
C1351      C1352   1.408       .  A
C1351      N1877   1.439       .  S
C1352      C1353   1.407       .  A
C1352      H1357   1.083       .  S
C1353      C1354   1.415       .  A
C1354      C1355   1.402       .  A
C1354      N1358   1.436       .  S
C1355      H1359   1.084       .  S
N1356      C1872   1.439   1_545  S
N1356      O1366   1.263       .  A
N1356      O1367   1.263       .  A
N1358      O1364   1.262       .  A
N1358      O1365   1.263       .  A
C1368      C1369   1.405       .  A
C1368      C1373   1.400       .  A
C1368      H1378   1.083       .  S
C1369      C1370   1.416       .  A
C1369      C1374   1.488       .  S
C1370      C1371   1.405       .  A
C1370      N1375   1.436       .  S
C1371      C1372   1.404       .  A
C1371      H1376   1.083       .  S
C1372      C1373   1.411       .  A
C1373      N1377   1.436       .  S
C1374      C1379   1.418       .  A
C1374      C1383   1.400       .  A
N1375      O1390   1.261       .  A
N1375      O1391   1.263       .  A
N1377      O1388   1.262       .  A
N1377      O1389   1.263       .  A
C1379      C1380   1.412       .  A
C1379      N1905   1.438       .  S
C1380      C1381   1.407       .  A
C1380      H1906   1.083       .  S
C1381      C1382   1.418       .  A
C1382      C1383   1.391       .  A
C1382      N1386   1.431       .  S
C1383      H1387   1.085       .  S
N1384      C1900   1.437       .  S
N1384      O1394   1.263       .  A
N1384      O1395   1.263       .  A
H1385      C1901   1.083       .  S
N1386      O1392   1.262       .  A
N1386      O1393   1.262       .  A
C1396      C1397   1.404       .  A
C1396      C1401   1.402   1_554  A
C1396      H1406   1.083       .  S
C1397      C1398   1.414       .  A
C1397      C1402   1.487       .  S
C1398      C1399   1.404   1_554  A
C1398      N1403   1.436       .  S
C1399      C1400   1.404       .  A
C1399      H1404   1.083       .  S
C1400      C1401   1.413       .  A
C1401      N1405   1.434       .  S
C1402      C1407   1.416       .  A
C1402      C1411   1.406       .  A
N1403      O1418   1.262       .  A
N1403      O1419   1.262       .  A
N1405      O1416   1.262       .  A
N1405      O1417   1.262       .  A
C1407      C1408   1.403       .  A
C1407      N1412   1.437       .  S
C1408      C1409   1.402       .  A
C1408      H1413   1.083       .  S
C1409      C1410   1.408       .  A
C1410      C1411   1.402       .  A
C1410      N1935   1.430       .  S
C1411      H1936   1.083       .  S
N1412      O1422   1.263       .  A
N1412      O1423   1.262       .  A
N1414      C1931   1.431   1_545  S
N1414      O1420   1.262       .  A
N1414      O1421   1.262       .  A
H1415      C1932   1.083   1_545  S
C1424      C1425   1.401       .  A
C1424      C1429   1.404       .  A
C1424      H1434   1.083       .  S
C1425      C1426   1.405       .  A
C1425      C1430   1.477       .  S
C1426      C1427   1.398       .  A
C1426      N1431   1.431       .  S
C1427      C1428   1.408       .  A
C1427      H1432   1.083       .  S
C1428      C1429   1.413       .  A
C1429      N1433   1.426       .  S
C1430      C1435   1.409       .  A
C1430      C1439   1.401       .  A
N1431      O1446   1.262       .  A
N1431      O1447   1.262       .  A
N1433      O1444   1.262       .  A
N1433      O1445   1.262       .  A
C1435      C1436   1.402       .  A
C1435      N1440   1.433       .  S
C1436      C1437   1.404       .  A
C1436      H1441   1.083       .  S
C1437      C1438   1.415       .  A
C1438      C1439   1.404       .  A
C1438      N1442   1.438       .  S
C1439      H1443   1.083       .  S
N1440      O1450   1.262       .  A
N1440      O1451   1.262       .  A
N1442      O1448   1.263       .  A
N1442      O1449   1.263       .  A
C1452      C1453   1.403       .  A
C1452      C1457   1.403       .  A
C1452      H1462   1.083       .  S
C1453      C1454   1.412       .  A
C1453      C1458   1.492       .  S
C1454      C1455   1.404       .  A
C1454      N1459   1.434       .  S
C1455      C1456   1.409       .  A
C1455      H1460   1.083       .  S
C1456      C1457   1.420       .  A
C1457      N1461   1.432       .  S
C1458      C1463   1.415       .  A
C1458      C1467   1.406       .  A
N1459      O1474   1.262       .  A
N1459      O1475   1.262       .  A
N1461      O1472   1.261       .  A
N1461      O1473   1.262       .  A
C1463      C1464   1.405       .  A
C1463      N1468   1.438       .  S
C1464      C1465   1.406       .  A
C1464      H1469   1.083       .  S
C1465      C1466   1.415       .  A
C1466      C1467   1.404       .  A
C1466      N1470   1.437       .  S
C1467      H1471   1.082       .  S
N1468      O1478   1.263       .  A
N1468      O1479   1.263       .  A
N1470      O1476   1.263       .  A
N1470      O1477   1.262       .  A
C1480      C1481   1.405       .  A
C1480      C1485   1.405       .  A
C1480      H1490   1.083       .  S
C1481      C1482   1.414       .  A
C1481      C1486   1.486       .  S
C1482      C1483   1.401       .  A
C1482      N1487   1.436       .  S
C1483      C1484   1.400       .  A
C1483      H1488   1.083       .  S
C1484      C1485   1.412       .  A
C1485      N1489   1.437       .  S
C1486      C1491   1.414       .  A
C1486      C1495   1.400       .  A
N1487      O1502   1.262       .  A
N1487      O1503   1.263       .  A
N1489      O1500   1.262       .  A
N1489      O1501   1.263       .  A
C1491      C1492   1.410       .  A
C1491      N1496   1.434       .  S
C1492      C1493   1.408       .  A
C1492      H1497   1.082       .  S
C1493      C1494   1.419       .  A
C1494      C1495   1.395       .  A
C1494      N1498   1.431       .  S
C1495      H1499   1.083       .  S
N1496      O1506   1.262       .  A
N1496      O1507   1.262       .  A
N1498      O1504   1.262       .  A
N1498      O1505   1.262       .  A
C1508      C1509   1.403       .  A
C1508      C1513   1.400       .  A
C1508      H1518   1.083       .  S
C1509      C1510   1.413       .  A
C1509      C1514   1.486       .  S
C1510      C1511   1.402       .  A
C1510      N1515   1.437       .  S
C1511      C1512   1.409       .  A
C1511      H1516   1.083       .  S
C1512      C1513   1.412       .  A
C1513      N1517   1.426       .  S
C1514      C1519   1.413       .  A
C1514      C1523   1.404       .  A
N1515      O1530   1.263       .  A
N1515      O1531   1.263       .  A
N1517      O1528   1.262       .  A
N1517      O1529   1.261       .  A
C1519      C1520   1.400       .  A
C1519      N1524   1.436       .  S
C1520      C1521   1.404       .  A
C1520      H1525   1.083       .  S
C1521      C1522   1.417       .  A
C1522      C1523   1.405       .  A
C1522      N1526   1.438       .  S
C1523      H1527   1.083       .  S
N1524      O1534   1.262       .  A
N1524      O1535   1.263       .  A
N1526      O1532   1.263       .  A
N1526      O1533   1.263       .  A
C1536      C1537   1.404       .  A
C1536      C1541   1.402       .  A
C1536      H1546   1.084       .  S
C1537      C1538   1.414       .  A
C1537      C1542   1.480       .  S
C1538      C1539   1.402       .  A
C1538      N1543   1.438       .  S
C1539      C1540   1.402       .  A
C1539      H1544   1.084       .  S
C1540      C1541   1.411       .  A
C1541      N1545   1.436       .  S
C1542      C1547   1.413       .  A
C1542      C1551   1.401       .  A
N1543      O1558   1.262       .  A
N1543      O1559   1.263       .  A
N1545      O1556   1.262       .  A
N1545      O1557   1.263       .  A
C1547      C1548   1.405   1_554  A
C1547      N1552   1.440       .  S
C1548      C1549   1.406       .  A
C1548      H1553   1.083       .  S
C1549      C1550   1.416       .  A
C1550      C1551   1.401   1_556  A
C1550      N1554   1.437       .  S
C1551      H1555   1.084       .  S
N1552      O1562   1.263       .  A
N1552      O1563   1.263       .  A
N1554      O1560   1.262       .  A
N1554      O1561   1.263       .  A
C1564      C1565   1.409       .  A
C1564      C1569   1.408       .  A
C1564      C2042   1.493       .  S
C1565      C1566   1.405       .  A
C1565      H1570   1.084       .  S
C1566      C1567   1.397       .  A
C1566      C2005   1.481       .  S
C1567      C1568   1.401       .  A
C1567      H1571   1.084       .  S
C1568      C1569   1.406       .  A
C1568      C2061   1.480       .  S
C1569      H1572   1.083       .  S
C1573      C1574   1.403       .  A
C1573      C1578   1.408       .  A
C1573      C1986   1.489       .  S
C1574      C1575   1.402       .  A
C1574      H1579   1.084       .  S
C1575      C1576   1.401       .  A
C1575      C2070   1.479       .  S
C1576      C1577   1.402       .  A
C1576      H1580   1.084       .  S
C1577      C1578   1.408       .  A
C1577      C1958   1.485       .  S
C1578      H1581   1.083       .  S
C1582      C1583   1.405       .  A
C1582      C1587   1.405       .  A
C1582      C1874   1.488       .  S
C1583      C1584   1.405       .  A
C1583      H1588   1.084       .  S
C1584      C1585   1.402       .  A
C1584      C1893   1.482       .  S
C1585      C1586   1.403       .  A
C1585      H1589   1.084       .  S
C1586      C1587   1.404       .  A
C1586      C1930   1.479       .  S
C1587      H1590   1.084       .  S
C1591      C1592   1.404       .  A
C1591      C1596   1.405       .  A
C1591      C1809   1.487       .  S
C1592      C1593   1.404       .  A
C1592      H1597   1.084       .  S
C1593      C1594   1.401       .  A
C1593      C1837   1.481       .  S
C1594      C1595   1.405       .  A
C1594      H1598   1.084       .  S
C1595      C1596   1.406       .  A
C1595      C1921   1.484       .  S
C1596      H1599   1.084       .  S
C1600      C1601   1.404       .  A
C1600      C1605   1.402       .  A
C1600      C1762   1.485       .  S
C1601      C1602   1.403       .  A
C1601      H1606   1.084       .  S
C1602      C1603   1.402       .  A
C1602      C1725   1.480       .  S
C1603      C1604   1.403       .  A
C1603      H1607   1.084       .  S
C1604      C1605   1.404       .  A
C1604      C1790   1.478       .  S
C1605      H1608   1.084       .  S
C1609      C1610   1.402       .  A
C1609      C1614   1.402       .  A
C1609      C1697   1.478   1_455  S
C1610      C1611   1.403   1_455  A
C1610      H1615   1.084   1_455  S
C1611      C1612   1.402   1_655  A
C1611      C1781   1.475       .  S
C1612      C1613   1.400       .  A
C1612      H1616   1.084       .  S
C1613      C1614   1.404       .  A
C1613      C1669   1.480       .  S
C1614      H1617   1.083       .  S
O1618     Mn1644   2.093       .  S
C1619      C1977   1.490       .  S
C1619      O1652   1.273       .  A
C1619      O1649   1.270       .  A
O1620     Mn1627   2.171       .  S
O1620     Mn1638   2.119       .  S
O1620     Mn1642   2.173       .  S
O1621     Mn1655   2.086       .  S
O1621      C1631   1.271       .  A
O1622     Mn1638   2.113       .  S
O1622      C1645   1.276       .  A
O1623     Mn1642   2.128       .  S
O1623      C1650   1.255       .  A
O1624     Mn1644   1.968       .  S
O1624      C1640   1.218       .  S
C1625      C1902   1.492       .  S
C1625      O1628   1.255       .  A
C1625      O1651   1.213       .  S
O1626     Mn1627   2.167       .  S
O1626     Mn1660   2.113       .  S
O1626     Mn1642   2.175       .  S
Mn1627     O1632   2.122       .  S
O1629     Mn1636   2.109       .  S
O1629      C1631   1.274       .  A
C1630      C1846   1.493       .  S
C1630      O1656   1.253       .  A
C1630      O1643   1.219       .  S
C1631      C2033   1.498       .  S
O1632      C1657   1.256       .  A
O1633     Mn1636   2.117       .  S
O1633     Mn1655   2.121       .  S
O1634     Mn1638   1.957       .  S
O1634     Mn1660   1.970       .  S
O1634      C1657   1.217       .  S
C1635      C1753   1.493       .  S
C1635      O1637   1.274       .  A
Mn1636     O1649   2.087       .  S
O1637     Mn1660   2.109       .  S
Mn1638     O1654   2.100       .  S
Mn1638     O1648   1.960       .  S
O1639      C1641   1.274       .  A
C1640      C1734   1.487       .  S
C1640      O1658   1.254       .  A
C1641      C1818   1.493       .  S
C1641      O1654   1.273       .  A
O1643     Mn1646   1.951       .  S
Mn1644     O1662   1.954       .  S
C1645      C1865   1.496       .  S
Mn1646     O1653   2.076       .  S
Mn1646     O1661   2.079       .  S
Mn1646     O1651   1.943       .  S
C1647      C1706   1.484       .  S
C1647      O1663   1.277       .  A
O1648     Mn1660   1.958       .  S
O1648      C1650   1.213       .  S
C1650      C2014   1.491       .  S
O1652     Mn1655   2.096       .  S
C1657      C1949   1.493       .  S
O1659      C1664   1.252       .  A
Mn1660     O1663   2.109       .  S
O1662      C1664   1.215       .  S
C1664      C1678   1.492       .  S
C1665      C1666   1.403   1_455  A
C1666      C1667   1.410       .  A
C1666      C1671   1.483       .  S
C1667      C1668   1.401       .  A
C1667      N1672   1.432       .  S
C1668      C1669   1.404   1_655  A
C1668      H1673   1.081       .  S
C1670      N1674   1.438       .  S
C1671      C1676   1.408       .  A
C1671      C1680   1.404       .  A
N1672      O1687   1.262       .  A
N1672      O1688   1.262       .  A
N1674      O1685   1.263       .  A
N1674      O1686   1.263       .  A
C1676      C1677   1.395       .  A
C1676      N1681   1.436       .  S
C1677      C1678   1.410       .  A
C1677      H1682   1.080       .  S
C1678      C1679   1.419       .  A
C1679      C1680   1.408       .  A
C1679      N1683   1.433       .  S
C1680      H1684   1.081   1_655  S
N1681      O1691   1.263   1_655  A
N1681      O1692   1.262       .  A
N1683      O1690   1.262   1_655  A
C1693      C1694   1.402   1_655  A
C1693      C1698   1.400       .  A
C1693      H1703   1.083       .  S
C1694      C1699   1.481   1_455  S
C1695      C1696   1.404       .  A
C1695      N1700   1.437       .  S
C1696      H1701   1.083       .  S
C1697      C1698   1.411       .  A
C1698      N1702   1.434       .  S
C1699      C1704   1.414   1_655  A
C1699      C1708   1.402       .  A
N1700      O1715   1.262       .  A
N1700      O1716   1.263       .  A
N1702      O1713   1.262       .  A
N1702      O1714   1.262       .  A
C1704      C1705   1.405       .  A
C1704      N1709   1.439       .  S
C1705      C1706   1.407   1_455  A
C1705      H1710   1.084       .  S
C1706      C1707   1.408       .  A
C1707      C1708   1.400       .  A
C1707      N1711   1.427       .  S
N1709      O1719   1.263       .  A
N1709      O1720   1.263       .  A
N1711      O1717   1.261       .  A
C1721      C1726   1.406       .  A
C1721      H1731   1.082       .  S
C1722      C1723   1.412       .  A
C1722      C1727   1.484       .  S
C1723      C1724   1.399       .  A
C1723      N1728   1.437       .  S
C1724      C1725   1.403   1_655  A
C1724      H1729   1.083       .  S
C1726      N1730   1.437       .  S
C1727      C1736   1.400       .  A
N1728      O1743   1.263       .  A
N1728      O1744   1.263       .  A
N1730      O1741   1.263       .  A
N1730      O1742   1.262       .  A
C1732      C1733   1.408       .  A
C1732      N1737   1.437       .  S
C1733      H1738   1.082       .  S
C1734      C1735   1.417       .  A
C1735      C1736   1.394       .  A
C1735      N1739   1.430       .  S
C1736      H1740   1.083       .  S
N1737      O1747   1.263       .  A
N1737      O1748   1.262       .  A
N1739      O1745   1.262   1_655  A
N1739      O1746   1.262       .  A
C1749      C1750   1.403       .  A
C1749      C1754   1.401       .  A
C1749      H1759   1.083       .  S
C1750      C1755   1.490       .  S
C1751      C1752   1.402       .  A
C1751      N1756   1.437       .  S
C1752      H1757   1.082       .  S
C1753      C1754   1.414       .  A
C1754      N1758   1.426       .  S
C1755      C1760   1.415       .  A
N1756      O1771   1.263       .  A
N1756      O1772   1.263       .  A
N1758      O1769   1.262       .  A
N1758      O1770   1.259       .  A
C1760      C1761   1.400       .  A
C1760      N1765   1.436       .  S
C1761      C1762   1.403   1_655  A
C1761      H1766   1.083       .  S
C1763      C1764   1.405       .  A
C1763      N1767   1.438       .  S
C1764      H1768   1.082       .  S
N1765      O1775   1.263       .  A
N1765      O1776   1.262       .  A
N1767      O1773   1.263       .  A
N1767      O1774   1.263       .  A
C1777      C1778   1.402   1_655  A
C1777      C1782   1.400   1_554  A
C1777      H1787   1.083       .  S
C1778      C1779   1.411       .  A
C1778      C1783   1.475       .  S
C1779      C1780   1.400   1_554  A
C1780      C1781   1.402   1_455  A
C1781      C1782   1.412       .  A
C1782      N1786   1.435       .  S
C1783      C1788   1.409   1_455  A
N1784      O1799   1.262       .  A
N1784      O1800   1.262       .  A
N1786      O1797   1.262       .  A
N1786      O1798   1.262       .  A
C1788      C1789   1.400       .  A
C1788      N1793   1.435       .  S
C1789      C1790   1.404   1_655  A
C1789      H1794   1.083       .  S
C1791      C1792   1.402       .  A
C1791      N1795   1.436       .  S
C1792      H1796   1.083       .  S
N1793      O1803   1.262       .  A
N1793      O1804   1.262       .  A
N1795      O1801   1.263       .  A
N1795      O1802   1.262       .  A
C1805      C1806   1.402       .  A
C1805      C1810   1.401       .  A
C1806      C1807   1.415       .  A
C1806      C1811   1.485       .  S
C1807      C1808   1.407       .  A
C1807      N1812   1.439       .  S
C1808      C1809   1.406       .  A
C1808      H1813   1.083       .  S
C1809      C1810   1.415       .  A
C1811      C1816   1.415       .  A
C1811      C1820   1.400       .  A
N1812      O1827   1.263       .  A
N1812      O1828   1.263       .  A
N1814      O1825   1.263       .  A
N1814      O1826   1.263       .  A
C1816      C1817   1.408       .  A
C1816      N1821   1.438       .  S
C1817      C1818   1.409       .  A
C1817      H1822   1.083       .  S
C1818      C1819   1.413       .  A
C1819      C1820   1.398       .  A
C1819      N1823   1.427   1_565  S
C1820      H1824   1.084   1_565  S
N1821      O1831   1.263       .  A
N1821      O1832   1.263       .  A
N1823      O1829   1.261       .  A
N1823      O1830   1.262       .  A
C1833      C1834   1.403       .  A
C1833      C1838   1.402       .  A
C1833      H1843   1.083       .  S
C1834      C1835   1.410   1_565  A
C1834      C1839   1.483       .  S
C1836      H1841   1.084       .  S
C1837      C1838   1.414       .  A
C1838      N1842   1.437       .  S
C1839      C1844   1.409       .  A
N1840      O1855   1.262       .  A
N1840      O1856   1.262       .  A
N1842      O1853   1.263       .  A
N1842      O1854   1.262       .  A
C1844      C1845   1.399       .  A
C1844      N1849   1.438       .  S
C1845      C1846   1.410       .  A
C1845      H1850   1.080       .  S
C1847      C1848   1.405       .  A
C1847      N1851   1.430       .  S
C1848      H1852   1.083       .  S
N1849      O1859   1.263       .  A
N1849      O1860   1.263   1_565  A
N1851      O1857   1.262       .  A
N1851      O1858   1.262       .  A
C1861      C1862   1.399       .  A
C1861      C1866   1.400       .  A
C1861      H1871   1.084       .  S
C1862      C1863   1.412       .  A
C1862      C1867   1.484       .  S
C1863      C1864   1.407       .  A
C1864      C1865   1.411       .  A
C1864      H1869   1.082   1_565  S
C1865      C1866   1.413       .  A
C1866      N1870   1.423       .  S
C1867      C1872   1.414       .  A
C1867      C1876   1.402       .  A
N1868      O1883   1.262       .  A
N1868      O1884   1.263       .  A
N1870      O1881   1.261       .  A
N1870      O1882   1.261       .  A
C1872      C1873   1.406       .  A
C1873      C1874   1.406       .  A
C1873      H1878   1.083   1_565  S
C1874      C1875   1.416       .  A
C1875      C1876   1.403       .  A
C1875      N1879   1.437       .  S
C1876      H1880   1.084       .  S
N1877      O1887   1.262       .  A
N1877      O1888   1.263       .  A
N1879      O1885   1.263       .  A
N1879      O1886   1.263       .  A
C1889      C1890   1.405       .  A
C1889      C1894   1.408       .  A
C1889      H1899   1.083       .  S
C1890      C1891   1.415       .  A
C1890      C1895   1.488       .  S
C1891      C1892   1.398       .  A
C1891      N1896   1.436   1_565  S
C1892      C1893   1.400       .  A
C1892      H1897   1.083   1_565  S
C1893      C1894   1.416       .  A
C1894      N1898   1.437       .  S
C1895      C1900   1.417       .  A
C1895      C1904   1.399       .  A
N1896      O1911   1.263       .  A
N1896      O1912   1.261       .  A
N1898      O1909   1.262       .  A
N1898      O1910   1.263       .  A
C1900      C1901   1.413       .  A
C1901      C1902   1.408       .  A
C1902      C1903   1.419       .  A
C1903      C1904   1.393       .  A
C1903      N1907   1.431       .  S
C1904      H1908   1.084       .  S
N1905      O1915   1.262       .  A
N1905      O1916   1.263       .  A
N1907      O1913   1.262   1_565  A
N1907      O1914   1.262       .  A
C1917      C1918   1.402       .  A
C1917      C1922   1.403   1_554  A
C1917      H1927   1.083       .  S
C1918      C1919   1.412       .  A
C1918      C1923   1.483       .  S
C1919      C1920   1.402   1_554  A
C1919      N1924   1.435   1_565  S
C1920      C1921   1.405       .  A
C1920      H1925   1.083   1_565  S
C1921      C1922   1.416       .  A
C1922      N1926   1.436       .  S
C1923      C1928   1.412       .  A
C1923      C1932   1.403       .  A
N1924      O1939   1.262       .  A
N1924      O1940   1.262       .  A
N1926      O1937   1.263       .  A
N1926      O1938   1.262       .  A
C1928      C1929   1.402       .  A
C1928      N1933   1.432       .  S
C1929      C1930   1.403       .  A
C1929      H1934   1.084       .  S
C1930      C1931   1.410       .  A
C1931      C1932   1.401       .  A
N1933      O1943   1.262       .  A
N1933      O1944   1.262       .  A
N1935      O1941   1.262       .  A
N1935      O1942   1.262       .  A
C1945      C1946   1.405       .  A
C1945      C1950   1.409       .  A
C1945      H1955   1.082       .  S
C1946      C1947   1.409       .  A
C1946      C1951   1.485       .  S
C1947      C1948   1.398       .  A
C1947      N1952   1.437       .  S
C1948      C1949   1.409       .  A
C1948      H1953   1.080       .  S
C1949      C1950   1.417       .  A
C1950      N1954   1.434       .  S
C1951      C1956   1.410       .  A
C1951      C1960   1.404       .  A
N1952      O1967   1.263       .  A
N1952      O1968   1.263       .  A
N1954      O1965   1.262       .  A
N1954      O1966   1.262       .  A
C1956      C1957   1.401       .  A
C1956      N1961   1.431       .  S
C1957      C1958   1.405       .  A
C1957      H1962   1.083       .  S
C1958      C1959   1.415       .  A
C1959      C1960   1.403       .  A
C1959      N1963   1.437       .  S
C1960      H1964   1.083       .  S
N1961      O1971   1.262       .  A
N1961      O1972   1.261       .  A
N1963      O1969   1.263       .  A
N1963      O1970   1.262       .  A
C1973      C1974   1.402       .  A
C1973      C1978   1.400       .  A
C1973      H1983   1.083       .  S
C1974      C1975   1.411       .  A
C1974      C1979   1.486       .  S
C1975      C1976   1.403       .  A
C1975      N1980   1.434       .  S
C1976      C1977   1.408       .  A
C1976      H1981   1.083       .  S
C1977      C1978   1.417       .  A
C1978      N1982   1.429       .  S
C1979      C1984   1.412       .  A
C1979      C1988   1.404       .  A
N1980      O1995   1.261       .  A
N1980      O1996   1.262       .  A
N1982      O1993   1.261       .  A
N1982      O1994   1.262       .  A
C1984      C1985   1.404       .  A
C1984      N1989   1.437       .  S
C1985      C1986   1.407       .  A
C1985      H1990   1.082       .  S
C1986      C1987   1.415       .  A
C1987      C1988   1.402       .  A
C1987      N1991   1.435       .  S
C1988      H1992   1.083       .  S
N1989      O1999   1.262       .  A
N1989      O2000   1.263       .  A
N1991      O1997   1.263       .  A
N1991      O1998   1.262       .  A
C2001      C2002   1.405       .  A
C2001      C2006   1.403       .  A
C2001      H2011   1.084       .  S
C2002      C2003   1.411       .  A
C2002      C2007   1.484       .  S
C2003      C2004   1.402       .  A
C2003      N2008   1.431       .  S
C2004      C2005   1.404       .  A
C2004      H2009   1.084       .  S
C2005      C2006   1.411       .  A
C2006      N2010   1.436       .  S
C2007      C2012   1.416       .  A
C2007      C2016   1.397       .  A
N2008      O2023   1.262       .  A
N2008      O2024   1.261       .  A
N2010      O2021   1.263       .  A
N2010      O2022   1.262       .  A
C2012      C2013   1.412       .  A
C2012      N2017   1.436       .  S
C2013      C2014   1.408       .  A
C2013      H2018   1.083       .  S
C2014      C2015   1.420       .  A
C2015      C2016   1.394       .  A
C2015      N2019   1.430       .  S
C2016      H2020   1.084       .  S
N2017      O2027   1.262       .  A
N2017      O2028   1.262       .  A
N2019      O2025   1.262       .  A
N2019      O2026   1.262       .  A
C2029      C2030   1.403       .  A
C2029      C2034   1.400       .  A
C2029      H2039   1.083       .  S
C2030      C2031   1.415       .  A
C2030      C2035   1.492       .  S
C2031      C2032   1.406       .  A
C2031      N2036   1.437       .  S
C2032      C2033   1.411       .  A
C2032      H2037   1.083       .  S
C2033      C2034   1.415       .  A
C2034      N2038   1.426       .  S
C2035      C2040   1.416       .  A
C2035      C2044   1.405       .  A
N2036      O2051   1.263       .  A
N2036      O2052   1.263       .  A
N2038      O2049   1.262       .  A
N2038      O2050   1.260       .  A
C2040      C2041   1.403       .  A
C2040      N2045   1.437       .  S
C2041      C2042   1.405       .  A
C2041      H2046   1.083       .  S
C2042      C2043   1.417       .  A
C2043      C2044   1.406       .  A
C2043      N2047   1.436       .  S
C2044      H2048   1.083       .  S
N2045      O2055   1.263       .  A
N2045      O2056   1.263       .  A
N2047      O2053   1.262       .  A
N2047      O2054   1.263       .  A
C2057      C2058   1.401       .  A
C2057      C2062   1.400       .  A
C2057      H2067   1.084       .  S
C2058      C2059   1.412       .  A
C2058      C2063   1.476       .  S
C2059      C2060   1.402       .  A
C2059      N2064   1.439       .  S
C2060      C2061   1.405       .  A
C2060      H2065   1.084       .  S
C2061      C2062   1.413       .  A
C2062      N2066   1.435       .  S
C2063      C2068   1.411       .  A
C2063      C2072   1.401       .  A
N2064      O2079   1.263       .  A
N2064      O2080   1.263       .  A
N2066      O2077   1.263       .  A
N2066      O2078   1.262       .  A
C2068      C2069   1.402   1_554  A
C2068      N2073   1.437       .  S
C2069      C2070   1.405       .  A
C2069      H2074   1.084       .  S
C2070      C2071   1.414       .  A
C2071      C2072   1.400   1_556  A
C2071      N2075   1.437       .  S
C2072      H2076   1.084       .  S
N2073      O2083   1.262       .  A
N2073      O2084   1.262       .  A
N2075      O2081   1.262       .  A
N2075      O2082   1.263       .  A
