geometry optimzed in LAMMPS
_audit_creation_date              2020-11-30 
_audit_creation_method            'lammps2cif' 
_symmetry_space_group_name_H-M    'P1' 
_symmetry_Int_Tables_number       1 
_symmetry_cell_setting            triclinic 
loop_ 
_symmetry_equiv_pos_as_xyz 
  x,y,z 
_cell_length_a                    41.89623102 
_cell_length_b                    41.72776618472979 
_cell_length_c                    72.06205675213135 
_cell_angle_alpha                 89.66683160156978 
_cell_angle_beta                  90.09620897484888 
_cell_angle_gamma                 87.87755703719502 
loop_ 
_atom_site_label 
_atom_site_type_symbol 
_atom_site_fract_x 
_atom_site_fract_y 
_atom_site_fract_z 
_atom_site_charge 
C1          C  0.20750984  0.25988279  0.65047737     0.80300
N2          N  0.20869316  0.25882543  0.66932091    -0.78000
C3          C  0.23714366  0.25692633  0.67839956     0.82800
N4          N  0.26468696  0.25610572  0.66849195    -0.77900
C5          C  0.26403321  0.25773726  0.64963949     0.82900
N6          N  0.23534650  0.25953117  0.64076958    -0.79700
C7          C  0.24142721  0.22357922  0.78687050     0.80300
N8          N  0.23942887  0.25181195  0.79626761    -0.78000
C9          C  0.23855045  0.28036302  0.78702369     0.82800
N10         N  0.23893072  0.28043001  0.76818059    -0.77900
C11         C  0.24097010  0.25253545  0.75859540     0.82900
N12         N  0.24235229  0.22418918  0.76799177    -0.79700
N13         N  0.43337740  0.24451855  0.34903905    -0.27200
N14         N  0.44896882  0.24575694  0.33314992    -0.35100
C15         C  0.42766409  0.24757871  0.31915676     0.01100
C16         C  0.39715079  0.24755934  0.32664331     0.07200
C17         C  0.40185655  0.24548562  0.34563386    -0.05900
H18         H  0.43410470  0.24819199  0.30464470     0.07800
H19         H  0.38372019  0.24471674  0.35627702     0.09000
Cu20       Cu  0.49847222  0.24417188  0.33142283     0.44200
Cu21       Cu  0.45510830  0.24109481  0.37472033     0.42000
Cu22       Cu  0.04057458  0.23464228  0.37560935     0.43900
N23         N  0.04786060  0.24159339  0.33411747    -0.34600
N24         N  0.06301072  0.23804957  0.35014376    -0.28800
C25         C  0.09465903  0.23722618  0.34709254    -0.04900
C26         C  0.09984210  0.24050772  0.32820247     0.07300
C27         C  0.06953690  0.24307628  0.32043509     0.01100
H28         H  0.11240123  0.23405895  0.35791530     0.08700
H29         H  0.06359407  0.24600840  0.30589507     0.07800
N30         N  0.01285725  0.23565229  0.39935950    -0.36000
N31         N  0.48137321  0.23817437  0.39895124    -0.28200
C32         C  0.47026151  0.23912827  0.41640645    -0.03500
C33         C  0.49601162  0.23726520  0.42850758     0.05200
C34         C  0.02269665  0.23490709  0.41712912     0.03300
H35         H  0.44522997  0.24166462  0.41997210     0.08400
H36         H  0.04747907  0.23288570  0.42129363     0.07200
N37         N  0.05076441  0.25453186  0.58786988    -0.27200
N38         N  0.03513375  0.25934999  0.60355751    -0.35100
C39         C  0.05643600  0.26247351  0.61737166     0.01100
C40         C  0.08707243  0.25960081  0.61002427     0.07200
C41         C  0.08232045  0.25438890  0.59123406    -0.05900
H42         H  0.05000266  0.26662344  0.63170922     0.07800
H43         H  0.10024831  0.25035108  0.58066692     0.09000
Cu44       Cu  0.48550327  0.26086121  0.60510711     0.44200
Cu45       Cu  0.02859337  0.24861606  0.56252522     0.42000
Cu46       Cu  0.44231804  0.25075120  0.56147932     0.43900
N47         N  0.43605777  0.25911452  0.60291611    -0.34600
N48         N  0.42042189  0.25529861  0.58717518    -0.28800
C49         C  0.38894741  0.25467836  0.59077548    -0.04900
C50         C  0.38444488  0.25804095  0.60972691     0.07300
C51         C  0.41492797  0.26101518  0.61691837     0.01100
H52         H  0.37073664  0.25149205  0.58035524     0.08700
H53         H  0.42150955  0.26435745  0.63126370     0.07800
N54         N  0.47051547  0.24771506  0.53788326    -0.36000
N55         N  0.00204169  0.24679555  0.53836853    -0.28200
C56         C  0.01329452  0.24500876  0.52095776    -0.03500
C57         C  0.48765190  0.24467528  0.50878426     0.05200
C58         C  0.46084246  0.24659615  0.52010182     0.03300
H59         H  0.03841416  0.24385731  0.51748855     0.08400
H60         H  0.43606518  0.24752951  0.51589246     0.07200
C61         C  0.25104197  0.28033278  0.15182002     0.80300
N62         N  0.24946815  0.25249295  0.14221215    -0.78000
C63         C  0.24757855  0.22393864  0.15122535     0.82800
N64         N  0.24711821  0.22343852  0.17004510    -0.77900
C65         C  0.24887987  0.25097887  0.17984447     0.82900
N66         N  0.25088933  0.27939113  0.17067952    -0.79700
C67         C  0.27579135  0.24484309  0.28818264     0.80300
N68         N  0.27562535  0.24576122  0.26934710    -0.78000
C69         C  0.24785224  0.24366341  0.25979598     0.82800
N70         N  0.22000018  0.24120699  0.26918543    -0.77900
C71         C  0.21968586  0.24082604  0.28803075     0.82900
N72         N  0.24771863  0.24260924  0.29742635    -0.79700
N73         N  0.24822500  0.06627245  0.85025407    -0.27200
N74         N  0.24352430  0.05096572  0.83453604    -0.35100
C75         C  0.24080637  0.07257941  0.82062472     0.01100
C76         C  0.24364723  0.10304348  0.82793296     0.07200
C77         C  0.24843047  0.09798832  0.84678895    -0.05900
H78         H  0.23687800  0.06654815  0.80624097     0.07800
H79         H  0.25232782  0.11590324  0.85724891     0.09000
Cu80       Cu  0.24125231  0.50127277  0.83289176     0.44200
Cu81       Cu  0.25457666  0.04327160  0.87569674     0.42000
Cu82       Cu  0.25216152  0.45665176  0.87629036     0.43900
N83         N  0.24095181  0.45145911  0.83499217    -0.34600
N84         N  0.24485727  0.43533286  0.85073143    -0.28800
C85         C  0.24384560  0.40373929  0.84725059    -0.04900
C86         C  0.23900966  0.39960199  0.82838063     0.07300
C87         C  0.23743729  0.43048562  0.82109076     0.01100
H88         H  0.24713494  0.38525252  0.85771916     0.08700
H89         H  0.23406183  0.43728754  0.80669301     0.07800
N90         N  0.25796007  0.48401177  0.89995547    -0.36000
N91         N  0.25869978  0.01564419  0.89969645    -0.28200
C92         C  0.26147258  0.02621577  0.91719108    -0.03500
C93         C  0.26272131  0.50000414  0.92911448     0.05200
C94         C  0.26035196  0.47361802  0.91763577     0.03300
H95         H  0.26217318  0.05124136  0.92095027     0.08400
H96         H  0.25941251  0.44872964  0.92177927     0.07200
N97         N  0.25187403  0.43757444  0.08898094    -0.27200
N98         N  0.25209503  0.45314144  0.10490091    -0.35100
C99         C  0.25161292  0.43174842  0.11893756     0.01100
C100        C  0.25085181  0.40117764  0.11152624     0.07200
C101        C  0.25118648  0.40593181  0.09246422    -0.05900
H102        H  0.25163883  0.43806240  0.13347602     0.07800
H103        H  0.25151711  0.38780976  0.08180073     0.09000
Cu104      Cu  0.25316488  0.50273300  0.10679160     0.44200
Cu105      Cu  0.25335814  0.45952359  0.06306839     0.42000
Cu106      Cu  0.25685137  0.04532524  0.06276139     0.43900
N107        N  0.25304429  0.05233929  0.10430872    -0.34600
N108        N  0.25423445  0.06767919  0.08825514    -0.28800
C109        C  0.25321138  0.09941430  0.09131680    -0.04900
C110        C  0.25151949  0.10453309  0.11029442     0.07300
C111        C  0.25134863  0.07399125  0.11804495     0.01100
H112        H  0.25324075  0.11719136  0.08036443     0.08700
H113        H  0.25017346  0.06782544  0.13261933     0.07800
N114        N  0.25825383  0.01809344  0.03889539    -0.36000
N115        N  0.25696996  0.48651945  0.03890696    -0.28200
C116        C  0.25832721  0.47612595  0.02127307    -0.03500
C117        C  0.26031292  0.50249666  0.00957665     0.05200
C118        C  0.26036379  0.02868429  0.02131409     0.03300
H119        H  0.25751361  0.45122699  0.01726080     0.08400
H120        H  0.26200664  0.05365111  0.01747866     0.07200
C121        C  0.26319980  0.50062568  0.94971514    -0.05400
C122        C  0.24848094  0.02671350  0.95899098    -0.32800
C123        C  0.24757751  0.02780998  0.97840024     0.36400
C124        C  0.26158352  0.50247846  0.98899838    -0.05700
C125        C  0.27660268  0.47651837  0.97974790    -0.32700
C126        C  0.27750509  0.47543427  0.96030235     0.36400
H127        H  0.23682833  0.04609142  0.95118741     0.16700
O128        O  0.23123444  0.05283310  0.98680079    -0.60200
H129        H  0.28798923  0.45705167  0.98761075     0.16700
O130        O  0.29361299  0.45033443  0.95183365    -0.60300
H131        H  0.27980181  0.43170614  0.95336086     0.43700
H132        H  0.24508399  0.07147389  0.98545672     0.43700
C133        C  0.25069177  0.37020339  0.12180627    -0.05400
C134        C  0.26474932  0.36767645  0.13950699    -0.32800
C135        C  0.26534120  0.33864334  0.14940660     0.36400
C136        C  0.25159327  0.31136785  0.14168995    -0.05700
C137        C  0.23756726  0.31392613  0.12400547    -0.32700
C138        C  0.23669023  0.34297154  0.11420184     0.36400
H139        H  0.27582993  0.38814705  0.14562731     0.16700
O140        O  0.27980088  0.33720832  0.16649054    -0.60200
H141        H  0.22643447  0.29347737  0.11787436     0.16700
O142        O  0.22125986  0.34452806  0.09741403    -0.60300
H143        H  0.19894927  0.35158859  0.10032786     0.43700
H144        H  0.30222990  0.32998093  0.16403879     0.43700
C145        C  0.24718436  0.19360714  0.14061746    -0.05400
C146        C  0.26003496  0.19253716  0.12264422    -0.32800
C147        C  0.26146248  0.16397526  0.11253361     0.36400
C148        C  0.24972129  0.13559790  0.12031624    -0.05700
C149        C  0.23641452  0.13683649  0.13820073    -0.32700
C150        C  0.23505634  0.16537102  0.14830707     0.36400
H151        H  0.26988999  0.21376696  0.11650745     0.16700
O152        O  0.27613353  0.16382411  0.09554193    -0.60200
H153        H  0.22677020  0.11562229  0.14444384     0.16700
O154        O  0.22181250  0.16522549  0.16570088    -0.60300
H155        H  0.19891011  0.17117806  0.16378531     0.43700
H156        H  0.26075102  0.17504031  0.08701626     0.43700
C157        C  0.24788942  0.24526433  0.23936818    -0.05400
C158        C  0.26745230  0.26704201  0.23037545    -0.32800
C159        C  0.26741788  0.26975287  0.21101646     0.36400
C160        C  0.24838325  0.24973660  0.20031407    -0.05700
C161        C  0.22916620  0.22758405  0.20931991    -0.32700
C162        C  0.22859122  0.22545634  0.22869758     0.36400
H163        H  0.28247612  0.28239719  0.23840438     0.16700
O164        O  0.28710115  0.29105493  0.20268483    -0.60200
H165        H  0.21435668  0.21200067  0.20130347     0.16700
O166        O  0.20950476  0.20359295  0.23703392    -0.60300
H167        H  0.22316770  0.18380017  0.23842001     0.43700
H168        H  0.27556123  0.31218028  0.20352996     0.43700
C169        C  0.36606277  0.24776688  0.31676791    -0.05400
C170        C  0.34018206  0.23261177  0.32498557    -0.32800
C171        C  0.31055616  0.23194329  0.31605083     0.36400
C172        C  0.30637963  0.24630318  0.29841645    -0.05700
C173        C  0.33211856  0.26180534  0.29028632    -0.32700
C174        C  0.36169424  0.26274585  0.29932031     0.36400
H175        H  0.34297826  0.22063487  0.33829113     0.16700
O176        O  0.28637495  0.21583013  0.32432593    -0.60200
H177        H  0.32926813  0.27357151  0.27691062     0.16700
O178        O  0.38561490  0.27965632  0.29135670    -0.60300
H179        H  0.39341816  0.26638511  0.28081759     0.43700
H180        H  0.27645164  0.23126856  0.33320767     0.43700
C181        C  0.13080221  0.24039077  0.31823144    -0.05400
C182        C  0.13234259  0.22925479  0.29989551    -0.32800
C183        C  0.16098103  0.22901482  0.28993141     0.36400
C184        C  0.18903742  0.23991560  0.29829303    -0.05700
C185        C  0.18751767  0.25094474  0.31667449    -0.32700
C186        C  0.15881568  0.25129269  0.32661796     0.36400
H187        H  0.11129787  0.22029457  0.29323391     0.16700
O188        O  0.16137914  0.21705175  0.27224172    -0.60200
H189        H  0.20854212  0.25998655  0.32333522     0.16700
O190        O  0.15813679  0.26398652  0.34413306    -0.60300
H191        H  0.16931806  0.24771430  0.35213815     0.43700
H192        H  0.15294548  0.23488120  0.26426088     0.43700
C193        C  0.49459214  0.23872815  0.44906749    -0.05400
C194        C  0.46718504  0.22847655  0.45822654    -0.32800
C195        C  0.46433632  0.23044710  0.47754434     0.36400
C196        C  0.48927842  0.24280804  0.48820706    -0.05700
C197        C  0.01670510  0.25305197  0.47902451    -0.32700
C198        C  0.01959136  0.25097307  0.45971123     0.36400
H199        H  0.44786362  0.21845086  0.45042398     0.16700
O200        O  0.43769127  0.21877812  0.48583369    -0.60200
H201        H  0.03601546  0.26317927  0.48677872     0.16700
O202        O  0.04628949  0.26249012  0.45139487    -0.60300
H203        H  0.06353666  0.24603660  0.45386242     0.43700
H204        H  0.42032309  0.23505280  0.48327381     0.43700
C205        C  0.24287645  0.13402008  0.81760099    -0.05400
C206        C  0.25461148  0.13499851  0.79937413    -0.32800
C207        C  0.25431161  0.16375725  0.78920246     0.36400
C208        C  0.24213091  0.19251106  0.79720699    -0.05700
C209        C  0.23026236  0.19144411  0.81544111    -0.32700
C210        C  0.23057396  0.16264938  0.82560302     0.36400
H211        H  0.26452415  0.11339879  0.79300298     0.16700
O212        O  0.26711525  0.16356363  0.77170172    -0.60200
H213        H  0.22026283  0.21297744  0.82184997     0.16700
O214        O  0.21727746  0.16251488  0.84298341    -0.59900
H215        H  0.23285614  0.17300041  0.85110826     0.43700
H216        H  0.25003578  0.15575564  0.76352237     0.43700
C217        C  0.23797268  0.36900524  0.81792922    -0.05400
C218        C  0.24883315  0.36801639  0.79951172    -0.32800
C219        C  0.24914536  0.33953138  0.78934145     0.36400
C220        C  0.23794493  0.31112395  0.79739850    -0.05700
C221        C  0.22671168  0.31217566  0.81576325    -0.32700
C222        C  0.22673688  0.34068066  0.82602074     0.36400
H223        H  0.25796630  0.38927842  0.79302867     0.16700
O224        O  0.26117442  0.33974042  0.77165249    -0.60200
H225        H  0.21767770  0.29083702  0.82222866     0.16700
O226        O  0.21443490  0.34084030  0.84364617    -0.60300
H227        H  0.23066949  0.32913420  0.85139744     0.43700
H228        H  0.28424652  0.33399815  0.77304713     0.43700
C229        C  0.17629461  0.26088677  0.64047962    -0.05400
C230        C  0.17530605  0.26872455  0.62148049    -0.32800
C231        C  0.14664802  0.26869590  0.61141090     0.36400
C232        C  0.11794280  0.26070893  0.62027352    -0.05700
C233        C  0.11882170  0.25340654  0.63932998    -0.32700
C234        C  0.14743664  0.25356239  0.64941673     0.36400
H235        H  0.19687421  0.27505946  0.61428004     0.16700
O236        O  0.14691263  0.27783008  0.59310375    -0.60200
H237        H  0.09730056  0.24690432  0.64650273     0.16700
O238        O  0.14691515  0.24529279  0.66785613    -0.60300
H239        H  0.13979889  0.26514504  0.67439761     0.43700
H240        H  0.15758416  0.25966156  0.58643979     0.43700
C241        C  0.29447114  0.25750483  0.63901336    -0.05400
C242        C  0.32281905  0.24619798  0.64766837    -0.32800
C243        C  0.35211784  0.24617113  0.63835811     0.36400
C244        C  0.35369655  0.25770182  0.61996691    -0.05700
C245        C  0.32534858  0.26867801  0.61118309    -0.32700
C246        C  0.29596468  0.26858325  0.62047593     0.36400
H247        H  0.32236143  0.23692075  0.66173375     0.16700
O248        O  0.37873720  0.23319945  0.64708142    -0.60200
H249        H  0.32594787  0.27782374  0.59709507     0.16700
O250        O  0.26916107  0.28049392  0.61147474    -0.60300
H251        H  0.26161311  0.26241976  0.60395730     0.43700
H252        H  0.38445011  0.24906656  0.65659996     0.43700
C253        C  0.23814903  0.25586098  0.69891063    -0.05400
C254        C  0.26041586  0.23526701  0.70804795    -0.32800
C255        C  0.26129714  0.23347500  0.72749646     0.36400
C256        C  0.24045663  0.25328384  0.73808800    -0.05700
C257        C  0.21881555  0.27445230  0.72893795    -0.32700
C258        C  0.21716763  0.27544701  0.70953802     0.36400
H259        H  0.27685624  0.22016270  0.70008504     0.16700
O260        O  0.28350390  0.21335685  0.73601339    -0.60200
H261        H  0.20272720  0.28997375  0.73687710     0.16700
O262        O  0.19590399  0.29666464  0.70109167    -0.60300
H263        H  0.17504098  0.28621480  0.70159328     0.43700
H264        H  0.27455496  0.19173289  0.73533751     0.43700
C265        C  0.20750984  0.75988290  0.65047737     0.80300
N266        N  0.20869319  0.75882551  0.66932090    -0.78000
C267        C  0.23714367  0.75692630  0.67839955     0.82800
N268        N  0.26468700  0.75610568  0.66849195    -0.77900
C269        C  0.26403325  0.75773737  0.64963951     0.82900
N270        N  0.23534652  0.75953132  0.64076959    -0.79700
C271        C  0.24142716  0.72357923  0.78687050     0.80300
N272        N  0.23942887  0.75181197  0.79626761    -0.78000
C273        C  0.23855054  0.78036302  0.78702368     0.82800
N274        N  0.23893082  0.78043000  0.76818058    -0.77900
C275        C  0.24097009  0.75253543  0.75859539     0.82900
N276        N  0.24235222  0.72418918  0.76799177    -0.79700
N277        N  0.43337732  0.74451853  0.34903905    -0.27200
N278        N  0.44896878  0.74575694  0.33314993    -0.35100
C279        C  0.42766407  0.74757863  0.31915676     0.01100
C280        C  0.39715074  0.74755928  0.32664328     0.07200
C281        C  0.40185646  0.74548558  0.34563381    -0.05900
H282        H  0.43410471  0.74819192  0.30464472     0.07800
H283        H  0.38372001  0.74471698  0.35627692     0.09000
Cu284      Cu  0.49847218  0.74417189  0.33142284     0.44200
Cu285      Cu  0.45510819  0.74109485  0.37472037     0.42000
Cu286      Cu  0.04057458  0.73464230  0.37560937     0.43900
N287        N  0.04786070  0.74159340  0.33411747    -0.34600
N288        N  0.06301075  0.73804958  0.35014377    -0.28800
C289        C  0.09465908  0.73722619  0.34709257    -0.04900
C290        C  0.09984221  0.74050772  0.32820251     0.07300
C291        C  0.06953709  0.74307628  0.32043511     0.01100
H292        H  0.11240125  0.73405897  0.35791533     0.08700
H293        H  0.06359448  0.74600841  0.30589507     0.07800
N294        N  0.01285711  0.73565231  0.39935951    -0.36000
N295        N  0.48137342  0.73817433  0.39895126    -0.28200
C296        C  0.47026183  0.73912825  0.41640650    -0.03500
C297        C  0.49601201  0.73726508  0.42850761     0.05200
C298        C  0.02269648  0.73490712  0.41712913     0.03300
H299        H  0.44523038  0.74166500  0.41997219     0.08400
H300        H  0.04747888  0.73288574  0.42129366     0.07200
N301        N  0.05076440  0.75453192  0.58786987    -0.27200
N302        N  0.03513375  0.75935003  0.60355751    -0.35100
C303        C  0.05643604  0.76247347  0.61737165     0.01100
C304        C  0.08707245  0.75960076  0.61002423     0.07200
C305        C  0.08232044  0.75438889  0.59123402    -0.05900
H306        H  0.05000272  0.76662312  0.63170924     0.07800
H307        H  0.10024825  0.75035111  0.58066684     0.09000
Cu308      Cu  0.48550329  0.76086119  0.60510709     0.44200
Cu309      Cu  0.02859329  0.74861627  0.56252523     0.42000
Cu310      Cu  0.44231810  0.75075120  0.56147934     0.43900
N311        N  0.43605783  0.75911456  0.60291609    -0.34600
N312        N  0.42042192  0.75529864  0.58717519    -0.28800
C313        C  0.38894743  0.75467843  0.59077550    -0.04900
C314        C  0.38444494  0.75804094  0.60972692     0.07300
C315        C  0.41492804  0.76101523  0.61691835     0.01100
H316        H  0.37073662  0.75149210  0.58035528     0.08700
H317        H  0.42150966  0.76435746  0.63126367     0.07800
N318        N  0.47051553  0.74771504  0.53788327    -0.36000
N319        N  0.00204167  0.74679561  0.53836853    -0.28200
C320        C  0.01329454  0.74500879  0.52095776    -0.03500
C321        C  0.48765196  0.74467530  0.50878427     0.05200
C322        C  0.46084249  0.74659621  0.52010182     0.03300
H323        H  0.03841420  0.74385740  0.51748855     0.08400
H324        H  0.43606520  0.74752986  0.51589248     0.07200
C325        C  0.25104203  0.78033278  0.15182001     0.80300
N326        N  0.24946821  0.75249295  0.14221214    -0.78000
C327        C  0.24757855  0.72393865  0.15122534     0.82800
N328        N  0.24711819  0.72343854  0.17004509    -0.77900
C329        C  0.24887996  0.75097888  0.17984446     0.82900
N330        N  0.25088933  0.77939114  0.17067951    -0.79700
C331        C  0.27579139  0.74484308  0.28818262     0.80300
N332        N  0.27562536  0.74576124  0.26934708    -0.78000
C333        C  0.24785219  0.74366353  0.25979598     0.82800
N334        N  0.22000013  0.74120705  0.26918542    -0.77900
C335        C  0.21968584  0.74082612  0.28803075     0.82900
N336        N  0.24771864  0.74260925  0.29742631    -0.79700
N337        N  0.24822509  0.56627247  0.85025407    -0.27200
N338        N  0.24352438  0.55096573  0.83453605    -0.35100
C339        C  0.24080646  0.57257941  0.82062473     0.01100
C340        C  0.24364725  0.60304350  0.82793297     0.07200
C341        C  0.24843052  0.59798834  0.84678893    -0.05900
H342        H  0.23687833  0.56654812  0.80624096     0.07800
H343        H  0.25232784  0.61590331  0.85724887     0.09000
Cu344      Cu  0.24125225  0.00127276  0.83289176     0.44200
Cu345      Cu  0.25457673  0.54327163  0.87569673     0.42000
Cu346      Cu  0.25216135  0.95665174  0.87629036     0.43900
N347        N  0.24095189  0.95145910  0.83499228    -0.34600
N348        N  0.24485723  0.93533282  0.85073151    -0.28800
C349        C  0.24384555  0.90373925  0.84725065    -0.04900
C350        C  0.23900969  0.89960191  0.82838071     0.07300
C351        C  0.23743743  0.93048555  0.82109090     0.01100
H352        H  0.24713459  0.88525249  0.85771924     0.08700
H353        H  0.23406197  0.93728746  0.80669319     0.07800
N354        N  0.25795995  0.98401162  0.89995545    -0.36000
N355        N  0.25869980  0.51564439  0.89969649    -0.28200
C356        C  0.26147263  0.52621608  0.91719109    -0.03500
C357        C  0.26272119  0.00000388  0.92911447     0.05200
C358        C  0.26035185  0.97361784  0.91763576     0.03300
H359        H  0.26217326  0.55124174  0.92095023     0.08400
H360        H  0.25941225  0.94872949  0.92177925     0.07200
N361        N  0.25187410  0.93757438  0.08898094    -0.27200
N362        N  0.25209506  0.95314142  0.10490090    -0.35100
C363        C  0.25161301  0.93174842  0.11893756     0.01100
C364        C  0.25085185  0.90117762  0.11152625     0.07200
C365        C  0.25118654  0.90593177  0.09246423    -0.05900
H366        H  0.25163915  0.93806241  0.13347602     0.07800
H367        H  0.25151718  0.88780970  0.08180075     0.09000
Cu368      Cu  0.25316483  0.00273299  0.10679159     0.44200
Cu369      Cu  0.25335823  0.95952345  0.06306837     0.42000
Cu370      Cu  0.25685144  0.54532524  0.06276138     0.43900
N371        N  0.25304426  0.55233931  0.10430872    -0.34600
N372        N  0.25423449  0.56767918  0.08825513    -0.28800
C373        C  0.25321138  0.59941429  0.09131680    -0.04900
C374        C  0.25151955  0.60453310  0.11029443     0.07300
C375        C  0.25134871  0.57399127  0.11804496     0.01100
H376        H  0.25324084  0.61719133  0.08036442     0.08700
H377        H  0.25017371  0.56782548  0.13261936     0.07800
N378        N  0.25825386  0.51809348  0.03889538    -0.36000
N379        N  0.25696998  0.98651940  0.03890696    -0.28200
C380        C  0.25832727  0.97612593  0.02127308    -0.03500
C381        C  0.26031290  0.00249666  0.00957666     0.05200
C382        C  0.26036391  0.52868430  0.02131407     0.03300
H383        H  0.25751381  0.95122695  0.01726080     0.08400
H384        H  0.26200691  0.55365110  0.01747865     0.07200
C385        C  0.26319968  0.00062563  0.94971514    -0.05400
C386        C  0.24848102  0.52671352  0.95899099    -0.32800
C387        C  0.24757767  0.52780993  0.97840022     0.36400
C388        C  0.26158350  0.00247846  0.98899839    -0.05700
C389        C  0.27660265  0.97651840  0.97974790    -0.32700
C390        C  0.27750504  0.97543427  0.96030235     0.36400
H391        H  0.23682850  0.54609143  0.95118741     0.16700
O392        O  0.23123536  0.55283381  0.98680070    -0.60200
H393        H  0.28798932  0.95705179  0.98761076     0.16700
O394        O  0.29361287  0.95033438  0.95183365    -0.60300
H395        H  0.27980164  0.93170614  0.95336085     0.43700
H396        H  0.24508409  0.57147228  0.98545657     0.43700
C397        C  0.25069184  0.87020338  0.12180632    -0.05400
C398        C  0.26474945  0.86767650  0.13950705    -0.32800
C399        C  0.26534137  0.83864334  0.14940655     0.36400
C400        C  0.25159338  0.81136782  0.14168995    -0.05700
C401        C  0.23756733  0.81392603  0.12400546    -0.32700
C402        C  0.23669033  0.84297145  0.11420182     0.36400
H403        H  0.27583030  0.88814707  0.14562728     0.16700
O404        O  0.27980194  0.83720799  0.16649039    -0.60200
H405        H  0.22643475  0.79347717  0.11787426     0.16700
O406        O  0.22126030  0.84452794  0.09741393    -0.60300
H407        H  0.19894877  0.85158878  0.10032775     0.43700
H408        H  0.30222793  0.82998145  0.16403876     0.43700
C409        C  0.24718447  0.69360714  0.14061746    -0.05400
C410        C  0.26003499  0.69253720  0.12264420    -0.32800
C411        C  0.26146254  0.66397529  0.11253360     0.36400
C412        C  0.24972135  0.63559792  0.12031623    -0.05700
C413        C  0.23641459  0.63683650  0.13820071    -0.32700
C414        C  0.23505637  0.66537103  0.14830706     0.36400
H415        H  0.26989008  0.71376700  0.11650745     0.16700
O416        O  0.27613361  0.66382413  0.09554193    -0.60200
H417        H  0.22677034  0.61562226  0.14444383     0.16700
O418        O  0.22181284  0.66522539  0.16570092    -0.60300
H419        H  0.19890968  0.67117833  0.16378541     0.43700
H420        H  0.26075110  0.67504032  0.08701626     0.43700
C421        C  0.24788939  0.74526435  0.23936817    -0.05400
C422        C  0.26745220  0.76704197  0.23037542    -0.32800
C423        C  0.26741782  0.76975286  0.21101644     0.36400
C424        C  0.24838329  0.74973663  0.20031406    -0.05700
C425        C  0.22916631  0.72758412  0.20931991    -0.32700
C426        C  0.22859111  0.72545644  0.22869762     0.36400
H427        H  0.28247569  0.78239739  0.23840435     0.16700
O428        O  0.28710102  0.79105501  0.20268486    -0.60200
H429        H  0.21435695  0.71200059  0.20130349     0.16700
O430        O  0.20950423  0.70359367  0.23703387    -0.60300
H431        H  0.22316853  0.68379848  0.23842014     0.43700
H432        H  0.27556097  0.81218033  0.20352999     0.43700
C433        C  0.36606274  0.74776681  0.31676795    -0.05400
C434        C  0.34018203  0.73261163  0.32498558    -0.32800
C435        C  0.31055611  0.73194314  0.31605085     0.36400
C436        C  0.30637966  0.74630308  0.29841651    -0.05700
C437        C  0.33211859  0.76180523  0.29028647    -0.32700
C438        C  0.36169430  0.76274570  0.29932038     0.36400
H439        H  0.34297808  0.72063464  0.33829113     0.16700
O440        O  0.28637523  0.71582939  0.32432560    -0.60200
H441        H  0.32926807  0.77357152  0.27691087     0.16700
O442        O  0.38561490  0.77965626  0.29135673    -0.60300
H443        H  0.39341816  0.76638512  0.28081762     0.43700
H444        H  0.27645068  0.73126887  0.33320819     0.43700
C445        C  0.13080228  0.74039075  0.31823142    -0.05400
C446        C  0.13234254  0.72925474  0.29989547    -0.32800
C447        C  0.16098099  0.72901485  0.28993143     0.36400
C448        C  0.18903746  0.73991565  0.29829307    -0.05700
C449        C  0.18751789  0.75094481  0.31667453    -0.32700
C450        C  0.15881585  0.75129273  0.32661796     0.36400
H451        H  0.11129781  0.72029460  0.29323379     0.16700
O452        O  0.16137903  0.71705214  0.27224161    -0.60200
H453        H  0.20854249  0.75998657  0.32333521     0.16700
O454        O  0.15813687  0.76398654  0.34413308    -0.60300
H455        H  0.16931812  0.74771432  0.35213815     0.43700
H456        H  0.15294578  0.73488090  0.26426125     0.43700
C457        C  0.49459219  0.73872804  0.44906753    -0.05400
C458        C  0.46718508  0.72847650  0.45822657    -0.32800
C459        C  0.46433638  0.73044708  0.47754438     0.36400
C460        C  0.48927866  0.74280812  0.48820710    -0.05700
C461        C  0.01670509  0.75305196  0.47902452    -0.32700
C462        C  0.01959140  0.75097310  0.45971123     0.36400
H463        H  0.44786362  0.71845069  0.45042402     0.16700
O464        O  0.43769185  0.71877750  0.48583380    -0.60200
H465        H  0.03601543  0.76317931  0.48677872     0.16700
O466        O  0.04628954  0.76249009  0.45139487    -0.60300
H467        H  0.06353657  0.74603663  0.45386243     0.43700
H468        H  0.42032174  0.73505349  0.48327385     0.43700
C469        C  0.24287650  0.63402012  0.81760102    -0.05400
C470        C  0.25461139  0.63499856  0.79937415    -0.32800
C471        C  0.25431166  0.66375732  0.78920250     0.36400
C472        C  0.24213071  0.69251113  0.79720701    -0.05700
C473        C  0.23026226  0.69144420  0.81544115    -0.32700
C474        C  0.23057385  0.66264942  0.82560303     0.36400
H475        H  0.26452421  0.61339888  0.79300299     0.16700
O476        O  0.26711556  0.66356385  0.77170192    -0.60200
H477        H  0.22026245  0.71297749  0.82184997     0.16700
O478        O  0.21727749  0.66251488  0.84298344    -0.59900
H479        H  0.23285626  0.67300042  0.85110822     0.43700
H480        H  0.25003471  0.65575523  0.76352189     0.43700
C481        C  0.23797266  0.86900524  0.81792921    -0.05400
C482        C  0.24883324  0.86801640  0.79951172    -0.32800
C483        C  0.24914545  0.83953139  0.78934144     0.36400
C484        C  0.23794503  0.81112395  0.79739847    -0.05700
C485        C  0.22671170  0.81217567  0.81576320    -0.32700
C486        C  0.22673688  0.84068065  0.82602072     0.36400
H487        H  0.25796646  0.88927842  0.79302870     0.16700
O488        O  0.26117450  0.83974044  0.77165248    -0.60200
H489        H  0.21767773  0.79083702  0.82222859     0.16700
O490        O  0.21443469  0.84084035  0.84364610    -0.60300
H491        H  0.23066920  0.82913427  0.85139751     0.43700
H492        H  0.28424660  0.83399816  0.77304713     0.43700
C493        C  0.17629452  0.76088692  0.64047968    -0.05400
C494        C  0.17530594  0.76872452  0.62148053    -0.32800
C495        C  0.14664797  0.76869581  0.61141091     0.36400
C496        C  0.11794278  0.76070890  0.62027350    -0.05700
C497        C  0.11882167  0.75340659  0.63933001    -0.32700
C498        C  0.14743662  0.75356252  0.64941674     0.36400
H499        H  0.19687412  0.77505934  0.61428014     0.16700
O500        O  0.14691287  0.77782955  0.59310363    -0.60200
H501        H  0.09730057  0.74690438  0.64650277     0.16700
O502        O  0.14691499  0.74529362  0.66785632    -0.60300
H503        H  0.13979903  0.76514445  0.67439702     0.43700
H504        H  0.15758402  0.75966173  0.58644018     0.43700
C505        C  0.29447119  0.75750485  0.63901337    -0.05400
C506        C  0.32281908  0.74619798  0.64766837    -0.32800
C507        C  0.35211789  0.74617115  0.63835812     0.36400
C508        C  0.35369662  0.75770187  0.61996692    -0.05700
C509        C  0.32534865  0.76867803  0.61118311    -0.32700
C510        C  0.29596475  0.76858333  0.62047596     0.36400
H511        H  0.32236143  0.73692078  0.66173375     0.16700
O512        O  0.37873726  0.73319947  0.64708142    -0.60200
H513        H  0.32594790  0.77782381  0.59709509     0.16700
O514        O  0.26916127  0.78049417  0.61147485    -0.60300
H515        H  0.26161291  0.76241911  0.60395711     0.43700
H516        H  0.38445017  0.74906657  0.65659996     0.43700
C517        C  0.23814899  0.75586099  0.69891060    -0.05400
C518        C  0.26041592  0.73526706  0.70804794    -0.32800
C519        C  0.26129725  0.73347501  0.72749645     0.36400
C520        C  0.24045678  0.75328379  0.73808797    -0.05700
C521        C  0.21881569  0.77445222  0.72893791    -0.32700
C522        C  0.21716764  0.77544682  0.70953801     0.36400
H523        H  0.27685604  0.72016249  0.70008502     0.16700
O524        O  0.28350398  0.71335685  0.73601338    -0.60200
H525        H  0.20272748  0.78997360  0.73687710     0.16700
O526        O  0.19590296  0.79666388  0.70109173    -0.60300
H527        H  0.17504291  0.78621479  0.70159345     0.43700
H528        H  0.27455503  0.69173290  0.73533751     0.43700
C529        C  0.70750979  0.25988277  0.65047737     0.80300
N530        N  0.70869312  0.25882550  0.66932090    -0.78000
C531        C  0.73714358  0.25692636  0.67839956     0.82800
N532        N  0.76468692  0.25610570  0.66849195    -0.77900
C533        C  0.76403319  0.25773729  0.64963949     0.82900
N534        N  0.73534647  0.25953125  0.64076958    -0.79700
C535        C  0.74142703  0.22357923  0.78687050     0.80300
N536        N  0.73942877  0.25181197  0.79626760    -0.78000
C537        C  0.73855049  0.28036304  0.78702368     0.82800
N538        N  0.73893071  0.28043001  0.76818058    -0.77900
C539        C  0.74097011  0.25253544  0.75859539     0.82900
N540        N  0.74235216  0.22418917  0.76799177    -0.79700
N541        N  0.93337755  0.24451853  0.34903890    -0.27200
N542        N  0.94896891  0.24575694  0.33314974    -0.35100
C543        C  0.92766421  0.24757862  0.31915656     0.01100
C544        C  0.89715091  0.24755927  0.32664311     0.07200
C545        C  0.90185672  0.24548558  0.34563367    -0.05900
H546        H  0.93410485  0.24819191  0.30464449     0.07800
H547        H  0.88372039  0.24471698  0.35627681     0.09000
Cu548      Cu  0.99847221  0.24417188  0.33142282     0.44200
Cu549      Cu  0.95510820  0.24109483  0.37472032     0.42000
Cu550      Cu  0.54057461  0.23464229  0.37560938     0.43900
N551        N  0.54786070  0.24159339  0.33411747    -0.34600
N552        N  0.56301078  0.23804957  0.35014377    -0.28800
C553        C  0.59465911  0.23722619  0.34709255    -0.04900
C554        C  0.59984226  0.24050774  0.32820250     0.07300
C555        C  0.56953710  0.24307627  0.32043512     0.01100
H556        H  0.61240128  0.23405895  0.35791531     0.08700
H557        H  0.56359442  0.24600840  0.30589509     0.07800
N558        N  0.51285717  0.23565230  0.39935953    -0.36000
N559        N  0.98137331  0.23817436  0.39895119    -0.28200
C560        C  0.97026169  0.23912825  0.41640643    -0.03500
C561        C  0.99601173  0.23726515  0.42850756     0.05200
C562        C  0.52269656  0.23490711  0.41712914     0.03300
H563        H  0.94523021  0.24166463  0.41997210     0.08400
H564        H  0.54747897  0.23288573  0.42129366     0.07200
N565        N  0.55076435  0.25453191  0.58786987    -0.27200
N566        N  0.53513370  0.25935000  0.60355751    -0.35100
C567        C  0.55643595  0.26247351  0.61737166     0.01100
C568        C  0.58707238  0.25960077  0.61002425     0.07200
C569        C  0.58232039  0.25438890  0.59123403    -0.05900
H570        H  0.55000257  0.26662346  0.63170922     0.07800
H571        H  0.60024820  0.25035112  0.58066684     0.09000
Cu572      Cu  0.98550332  0.26086120  0.60510710     0.44200
Cu573      Cu  0.52859326  0.24861626  0.56252522     0.42000
Cu574      Cu  0.94231812  0.25075120  0.56147935     0.43900
N575        N  0.93605790  0.25911455  0.60291615    -0.34600
N576        N  0.92042207  0.25529863  0.58717524    -0.28800
C577        C  0.88894759  0.25467838  0.59077554    -0.04900
C578        C  0.88444499  0.25804095  0.60972696     0.07300
C579        C  0.91492807  0.26101519  0.61691839     0.01100
H580        H  0.87073691  0.25149205  0.58035527     0.08700
H581        H  0.92150964  0.26435748  0.63126371     0.07800
N582        N  0.97051554  0.24771505  0.53788328    -0.36000
N583        N  0.50204160  0.24679560  0.53836853    -0.28200
C584        C  0.51329446  0.24500879  0.52095776    -0.03500
C585        C  0.98765193  0.24467530  0.50878426     0.05200
C586        C  0.96084249  0.24659617  0.52010183     0.03300
H587        H  0.53841410  0.24385740  0.51748855     0.08400
H588        H  0.93606517  0.24752957  0.51589249     0.07200
C589        C  0.75104194  0.28033274  0.15182001     0.80300
N590        N  0.74946817  0.25249293  0.14221214    -0.78000
C591        C  0.74757850  0.22393864  0.15122534     0.82800
N592        N  0.74711822  0.22343852  0.17004509    -0.77900
C593        C  0.74887999  0.25097884  0.17984446     0.82900
N594        N  0.75088935  0.27939111  0.17067951    -0.79700
C595        C  0.77579139  0.24484307  0.28818263     0.80300
N596        N  0.77562538  0.24576127  0.26934707    -0.78000
C597        C  0.74785223  0.24366341  0.25979598     0.82800
N598        N  0.72000018  0.24120687  0.26918543    -0.77900
C599        C  0.71968588  0.24082595  0.28803076     0.82900
N600        N  0.74771865  0.24260913  0.29742632    -0.79700
N601        N  0.74822506  0.06627248  0.85025407    -0.27200
N602        N  0.74352439  0.05096572  0.83453604    -0.35100
C603        C  0.74080645  0.07257941  0.82062473     0.01100
C604        C  0.74364729  0.10304349  0.82793296     0.07200
C605        C  0.74843047  0.09798835  0.84678893    -0.05900
H606        H  0.73687833  0.06654811  0.80624096     0.07800
H607        H  0.75232770  0.11590334  0.85724887     0.09000
Cu608      Cu  0.74125220  0.50127277  0.83289176     0.44200
Cu609      Cu  0.75457654  0.04327162  0.87569673     0.42000
Cu610      Cu  0.75216139  0.45665173  0.87629036     0.43900
N611        N  0.74095179  0.45145911  0.83499230    -0.34600
N612        N  0.74485723  0.43533283  0.85073152    -0.28800
C613        C  0.74384545  0.40373926  0.84725067    -0.04900
C614        C  0.73900966  0.39960193  0.82838074     0.07300
C615        C  0.73743741  0.43048556  0.82109092     0.01100
H616        H  0.74713456  0.38525248  0.85771924     0.08700
H617        H  0.73406233  0.43728747  0.80669318     0.07800
N618        N  0.75795994  0.48401160  0.89995545    -0.36000
N619        N  0.75869963  0.01564430  0.89969643    -0.28200
C620        C  0.76147240  0.02621587  0.91719107    -0.03500
C621        C  0.76272124  0.50000388  0.92911446     0.05200
C622        C  0.76035191  0.47361784  0.91763576     0.03300
H623        H  0.76217267  0.05124145  0.92095026     0.08400
H624        H  0.75941241  0.44872948  0.92177926     0.07200
N625        N  0.75187413  0.43757439  0.08898094    -0.27200
N626        N  0.75209507  0.45314143  0.10490091    -0.35100
C627        C  0.75161304  0.43174841  0.11893757     0.01100
C628        C  0.75085192  0.40117761  0.11152625     0.07200
C629        C  0.75118661  0.40593177  0.09246423    -0.05900
H630        H  0.75163915  0.43806241  0.13347603     0.07800
H631        H  0.75151726  0.38780971  0.08180075     0.09000
Cu632      Cu  0.75316478  0.50273300  0.10679160     0.44200
Cu633      Cu  0.75335829  0.45952344  0.06306837     0.42000
Cu634      Cu  0.75685147  0.04532523  0.06276138     0.43900
N635        N  0.75304420  0.05233931  0.10430872    -0.34600
N636        N  0.75423453  0.06767918  0.08825514    -0.28800
C637        C  0.75321139  0.09941428  0.09131680    -0.04900
C638        C  0.75151949  0.10453309  0.11029442     0.07300
C639        C  0.75134857  0.07399126  0.11804495     0.01100
H640        H  0.75324094  0.11719132  0.08036443     0.08700
H641        H  0.75017337  0.06782548  0.13261934     0.07800
N642        N  0.75825391  0.01809342  0.03889540    -0.36000
N643        N  0.75697005  0.48651940  0.03890697    -0.28200
C644        C  0.75832731  0.47612595  0.02127308    -0.03500
C645        C  0.76031287  0.50249669  0.00957666     0.05200
C646        C  0.76036376  0.02868426  0.02131409     0.03300
H647        H  0.75751406  0.45122697  0.01726080     0.08400
H648        H  0.76200617  0.05365112  0.01747865     0.07200
C649        C  0.76319963  0.50062562  0.94971512    -0.05400
C650        C  0.74848088  0.02671346  0.95899098    -0.32800
C651        C  0.74757746  0.02780993  0.97840023     0.36400
C652        C  0.76158337  0.50247853  0.98899837    -0.05700
C653        C  0.77660250  0.47651846  0.97974787    -0.32700
C654        C  0.77750500  0.47543432  0.96030233     0.36400
H655        H  0.73682821  0.04609132  0.95118740     0.16700
O656        O  0.73123453  0.05283314  0.98680076    -0.60200
H657        H  0.78798877  0.45705166  0.98761074     0.16700
O658        O  0.79361288  0.45033441  0.95183366    -0.60300
H659        H  0.77980166  0.43170615  0.95336087     0.43700
H660        H  0.74508423  0.07147383  0.98545667     0.43700
C661        C  0.75069183  0.37020331  0.12180627    -0.05400
C662        C  0.76474942  0.36767636  0.13950700    -0.32800
C663        C  0.76534135  0.33864322  0.14940650     0.36400
C664        C  0.75159327  0.31136773  0.14168991    -0.05700
C665        C  0.73756719  0.31392599  0.12400540    -0.32700
C666        C  0.73669024  0.34297144  0.11420181     0.36400
H667        H  0.77583006  0.38814696  0.14562728     0.16700
O668        O  0.77980194  0.33720795  0.16649036    -0.60200
H669        H  0.72643416  0.29347729  0.11787429     0.16700
O670        O  0.72125992  0.34452812  0.09741399    -0.60300
H671        H  0.69894937  0.35158862  0.10032778     0.43700
H672        H  0.80222796  0.32998144  0.16403874     0.43700
C673        C  0.74718440  0.19360714  0.14061745    -0.05400
C674        C  0.76003502  0.19253716  0.12264422    -0.32800
C675        C  0.76146255  0.16397526  0.11253362     0.36400
C676        C  0.74972123  0.13559793  0.12031621    -0.05700
C677        C  0.73641446  0.13683653  0.13820068    -0.32700
C678        C  0.73505629  0.16537105  0.14830706     0.36400
H679        H  0.76989019  0.21376693  0.11650749     0.16700
O680        O  0.77613363  0.16382409  0.09554195    -0.60200
H681        H  0.72677007  0.11562234  0.14444375     0.16700
O682        O  0.72181287  0.16522538  0.16570095    -0.60300
H683        H  0.69890963  0.17117833  0.16378555     0.43700
H684        H  0.76075113  0.17504030  0.08701628     0.43700
C685        C  0.74788933  0.24526431  0.23936814    -0.05400
C686        C  0.76745214  0.26704187  0.23037540    -0.32800
C687        C  0.76741777  0.26975277  0.21101643     0.36400
C688        C  0.74838320  0.24973657  0.20031403    -0.05700
C689        C  0.72916614  0.22758409  0.20931984    -0.32700
C690        C  0.72859094  0.22545641  0.22869757     0.36400
H691        H  0.78247566  0.28239722  0.23840435     0.16700
O692        O  0.78710101  0.29105493  0.20268487    -0.60200
H693        H  0.71435648  0.21200080  0.20130340     0.16700
O694        O  0.70950362  0.20359428  0.23703383    -0.60300
H695        H  0.72316862  0.18379737  0.23842034     0.43700
H696        H  0.77556098  0.31218026  0.20353001     0.43700
C697        C  0.86606274  0.24776679  0.31676794    -0.05400
C698        C  0.84018205  0.23261160  0.32498558    -0.32800
C699        C  0.81055611  0.23194312  0.31605086     0.36400
C700        C  0.80637964  0.24630305  0.29841651    -0.05700
C701        C  0.83211853  0.26180520  0.29028647    -0.32700
C702        C  0.86169424  0.26274576  0.29932038     0.36400
H703        H  0.84297815  0.22063463  0.33829114     0.16700
O704        O  0.78637525  0.21582937  0.32432561    -0.60200
H705        H  0.82926798  0.27357151  0.27691087     0.16700
O706        O  0.88561474  0.27965646  0.29135686    -0.60300
H707        H  0.89341846  0.26638474  0.28081731     0.43700
H708        H  0.77645070  0.23126886  0.33320820     0.43700
C709        C  0.63080236  0.24039076  0.31823145    -0.05400
C710        C  0.63234262  0.22925474  0.29989553    -0.32800
C711        C  0.66098104  0.22901474  0.28993146     0.36400
C712        C  0.68903748  0.23991541  0.29829307    -0.05700
C713        C  0.68751788  0.25094459  0.31667452    -0.32700
C714        C  0.65881586  0.25129265  0.32661796     0.36400
H715        H  0.61129781  0.22029474  0.29323393     0.16700
O716        O  0.66137897  0.21705214  0.27224162    -0.60200
H717        H  0.70854253  0.25998600  0.32333528     0.16700
O718        O  0.65813688  0.26398651  0.34413305    -0.60300
H719        H  0.66931815  0.24771431  0.35213815     0.43700
H720        H  0.65294577  0.23488105  0.26426133     0.43700
C721        C  0.99459196  0.23872807  0.44906745    -0.05400
C722        C  0.96718487  0.22847656  0.45822650    -0.32800
C723        C  0.96433622  0.23044694  0.47754434     0.36400
C724        C  0.98927849  0.24280812  0.48820705    -0.05700
C725        C  0.51670513  0.25305195  0.47902454    -0.32700
C726        C  0.51959144  0.25097303  0.45971126     0.36400
H727        H  0.94786329  0.21845078  0.45042396     0.16700
O728        O  0.93769232  0.21877685  0.48583392    -0.60200
H729        H  0.53601542  0.26317925  0.48677876     0.16700
O730        O  0.54629013  0.26248945  0.45139497    -0.60300
H731        H  0.56353525  0.24603740  0.45386245     0.43700
H732        H  0.92032020  0.23505427  0.48327382     0.43700
C733        C  0.74287644  0.13402009  0.81760099    -0.05400
C734        C  0.75461142  0.13499856  0.79937414    -0.32800
C735        C  0.75431154  0.16375729  0.78920247     0.36400
C736        C  0.74213076  0.19251111  0.79720700    -0.05700
C737        C  0.73026221  0.19144414  0.81544111    -0.32700
C738        C  0.73057375  0.16264939  0.82560302     0.36400
H739        H  0.76452431  0.11339889  0.79300307     0.16700
O740        O  0.76711514  0.16356365  0.77170170    -0.60200
H741        H  0.72026242  0.21297744  0.82184997     0.16700
O742        O  0.71727673  0.16251451  0.84298315    -0.59900
H743        H  0.73285670  0.17300089  0.85110896     0.43700
H744        H  0.75003566  0.15575565  0.76352237     0.43700
C745        C  0.73797267  0.36900531  0.81792923    -0.05400
C746        C  0.74883313  0.36801656  0.79951175    -0.32800
C747        C  0.74914528  0.33953154  0.78934141     0.36400
C748        C  0.73794488  0.31112401  0.79739852    -0.05700
C749        C  0.72671171  0.31217565  0.81576326    -0.32700
C750        C  0.72673685  0.34068067  0.82602074     0.36400
H751        H  0.75796660  0.38927854  0.79302874     0.16700
O752        O  0.76117321  0.33974079  0.77165235    -0.60200
H753        H  0.71767788  0.29083696  0.82222870     0.16700
O754        O  0.71443478  0.34084029  0.84364614    -0.60300
H755        H  0.73066934  0.32913421  0.85139743     0.43700
H756        H  0.78424848  0.33399793  0.77304683     0.43700
C757        C  0.67629455  0.26088681  0.64047967    -0.05400
C758        C  0.67530591  0.26872452  0.62148055    -0.32800
C759        C  0.64664794  0.26869581  0.61141092     0.36400
C760        C  0.61794277  0.26070890  0.62027351    -0.05700
C761        C  0.61882177  0.25340656  0.63932997    -0.32700
C762        C  0.64743667  0.25356239  0.64941676     0.36400
H763        H  0.69687406  0.27505939  0.61428017     0.16700
O764        O  0.64691285  0.27782953  0.59310365    -0.60200
H765        H  0.59730072  0.24690431  0.64650276     0.16700
O766        O  0.64691523  0.24529247  0.66785606    -0.60300
H767        H  0.63979860  0.26514536  0.67439788     0.43700
H768        H  0.65758404  0.25966170  0.58644021     0.43700
C769        C  0.79447117  0.25750482  0.63901336    -0.05400
C770        C  0.82281905  0.24619795  0.64766839    -0.32800
C771        C  0.85211786  0.24617116  0.63835815     0.36400
C772        C  0.85369663  0.25770178  0.61996694    -0.05700
C773        C  0.82534865  0.26867799  0.61118311    -0.32700
C774        C  0.79596474  0.26858333  0.62047595     0.36400
H775        H  0.82236126  0.23692069  0.66173375     0.16700
O776        O  0.87873727  0.23319959  0.64708155    -0.60200
H777        H  0.82594792  0.27782377  0.59709509     0.16700
O778        O  0.76916123  0.28049418  0.61147485    -0.60300
H779        H  0.76161286  0.26241915  0.60395708     0.43700
H780        H  0.88444992  0.24906613  0.65659977     0.43700
C781        C  0.73814885  0.25586109  0.69891062    -0.05400
C782        C  0.76041571  0.23526718  0.70804798    -0.32800
C783        C  0.76129710  0.23347501  0.72749649     0.36400
C784        C  0.74045671  0.25328385  0.73808799    -0.05700
C785        C  0.71881560  0.27445227  0.72893791    -0.32700
C786        C  0.71716758  0.27544693  0.70953800     0.36400
H787        H  0.77685587  0.22016270  0.70008507     0.16700
O788        O  0.78350420  0.21335736  0.73601340    -0.60200
H789        H  0.70272744  0.28997372  0.73687709     0.16700
O790        O  0.69590304  0.29666409  0.70109171    -0.60300
H791        H  0.67504294  0.28621513  0.70159340     0.43700
H792        H  0.77455504  0.19173194  0.73533765     0.43700
C793        C  0.70750986  0.75988289  0.65047737     0.80300
N794        N  0.70869323  0.75882550  0.66932091    -0.78000
C795        C  0.73714372  0.75692632  0.67839954     0.82800
N796        N  0.76468702  0.75610569  0.66849192    -0.77900
C797        C  0.76403326  0.75773738  0.64963946     0.82900
N798        N  0.73534652  0.75953132  0.64076956    -0.79700
C799        C  0.74142710  0.72357924  0.78687051     0.80300
N800        N  0.73942885  0.75181199  0.79626761    -0.78000
C801        C  0.73855057  0.78036305  0.78702367     0.82800
N802        N  0.73893076  0.78043000  0.76818057    -0.77900
C803        C  0.74097015  0.75253544  0.75859539     0.82900
N804        N  0.74235223  0.72418918  0.76799178    -0.79700
N805        N  0.93337745  0.74451854  0.34903892    -0.27200
N806        N  0.94896886  0.74575694  0.33314974    -0.35100
C807        C  0.92766426  0.74757862  0.31915652     0.01100
C808        C  0.89715091  0.74755925  0.32664311     0.07200
C809        C  0.90185663  0.74548557  0.34563371    -0.05900
H810        H  0.93410508  0.74819193  0.30464443     0.07800
H811        H  0.88372027  0.74471696  0.35627689     0.09000
Cu812      Cu  0.99847225  0.74417189  0.33142281     0.44200
Cu813      Cu  0.95510829  0.74109482  0.37472028     0.42000
Cu814      Cu  0.54057459  0.73464228  0.37560939     0.43900
N815        N  0.54786059  0.74159339  0.33411751    -0.34600
N816        N  0.56301070  0.73804958  0.35014380    -0.28800
C817        C  0.59465902  0.73722622  0.34709255    -0.04900
C818        C  0.59984209  0.74050775  0.32820247     0.07300
C819        C  0.56953689  0.74307628  0.32043513     0.01100
H820        H  0.61240124  0.73405900  0.35791528     0.08700
H821        H  0.56359409  0.74600838  0.30589511     0.07800
N822        N  0.51285740  0.73565219  0.39935957    -0.36000
N823        N  0.98137316  0.73817438  0.39895120    -0.28200
C824        C  0.97026144  0.73912828  0.41640642    -0.03500
C825        C  0.99601153  0.73726521  0.42850756     0.05200
C826        C  0.52269695  0.73490689  0.41712915     0.03300
H827        H  0.94522991  0.74166462  0.41997206     0.08400
H828        H  0.54747947  0.73288510  0.42129360     0.07200
N829        N  0.55076423  0.75453189  0.58786992    -0.27200
N830        N  0.53513363  0.75935003  0.60355754    -0.35100
C831        C  0.55643586  0.76247351  0.61737171     0.01100
C832        C  0.58707229  0.75960084  0.61002434     0.07200
C833        C  0.58232024  0.75438893  0.59123413    -0.05900
H834        H  0.55000236  0.76662313  0.63170927     0.07800
H835        H  0.60024799  0.75035110  0.58066696     0.09000
Cu836      Cu  0.98550327  0.76086119  0.60510709     0.44200
Cu837      Cu  0.52859330  0.74861607  0.56252521     0.42000
Cu838      Cu  0.94231802  0.75075120  0.56147933     0.43900
N839        N  0.93605780  0.75911457  0.60291607    -0.34600
N840        N  0.92042190  0.75529864  0.58717517    -0.28800
C841        C  0.88894742  0.75467842  0.59077549    -0.04900
C842        C  0.88444495  0.75804096  0.60972691     0.07300
C843        C  0.91492803  0.76101521  0.61691834     0.01100
H844        H  0.87073660  0.75149210  0.58035528     0.08700
H845        H  0.92150964  0.76435719  0.63126367     0.07800
N846        N  0.97051551  0.74771507  0.53788328    -0.36000
N847        N  0.50204166  0.74679555  0.53836853    -0.28200
C848        C  0.51329451  0.74500877  0.52095775    -0.03500
C849        C  0.98765198  0.74467527  0.50878427     0.05200
C850        C  0.96084251  0.74659615  0.52010183     0.03300
H851        H  0.53841412  0.74385731  0.51748853     0.08400
H852        H  0.93606521  0.74752952  0.51589249     0.07200
C853        C  0.75104196  0.78033276  0.15182002     0.80300
N854        N  0.74946818  0.75249294  0.14221215    -0.78000
C855        C  0.74757858  0.72393865  0.15122534     0.82800
N856        N  0.74711829  0.72343853  0.17004509    -0.77900
C857        C  0.74887992  0.75097886  0.17984444     0.82900
N858        N  0.75088927  0.77939115  0.17067951    -0.79700
C859        C  0.77579137  0.74484310  0.28818264     0.80300
N860        N  0.77562538  0.74576125  0.26934707    -0.78000
C861        C  0.74785225  0.74366345  0.25979596     0.82800
N862        N  0.72000020  0.74120701  0.26918542    -0.77900
C863        C  0.71968586  0.74082603  0.28803075     0.82900
N864        N  0.74771861  0.74260925  0.29742634    -0.79700
N865        N  0.74822501  0.56627249  0.85025407    -0.27200
N866        N  0.74352423  0.55096575  0.83453604    -0.35100
C867        C  0.74080628  0.57257942  0.82062472     0.01100
C868        C  0.74364724  0.60304350  0.82793297     0.07200
C869        C  0.74843056  0.59798835  0.84678894    -0.05900
H870        H  0.73687784  0.56654816  0.80624097     0.07800
H871        H  0.75232836  0.61590329  0.85724884     0.09000
Cu872      Cu  0.74125238  0.00127276  0.83289176     0.44200
Cu873      Cu  0.75457662  0.54327161  0.87569673     0.42000
Cu874      Cu  0.75216146  0.95665173  0.87629036     0.43900
N875        N  0.74095189  0.95145911  0.83499230    -0.34600
N876        N  0.74485731  0.93533281  0.85073152    -0.28800
C877        C  0.74384551  0.90373925  0.84725065    -0.04900
C878        C  0.73900974  0.89960194  0.82838071     0.07300
C879        C  0.73743749  0.93048557  0.82109092     0.01100
H880        H  0.74713461  0.88525247  0.85771922     0.08700
H881        H  0.73406245  0.93728749  0.80669318     0.07800
N882        N  0.75795994  0.98401176  0.89995541    -0.36000
N883        N  0.75869976  0.51564417  0.89969645    -0.28200
C884        C  0.76147250  0.52621577  0.91719107    -0.03500
C885        C  0.76272124  0.00000407  0.92911446     0.05200
C886        C  0.76035192  0.97361812  0.91763573     0.03300
H887        H  0.76217275  0.55124137  0.92095026     0.08400
H888        H  0.75941260  0.94872983  0.92177927     0.07200
N889        N  0.75187401  0.93757439  0.08898094    -0.27200
N890        N  0.75209507  0.95314144  0.10490090    -0.35100
C891        C  0.75161309  0.93174842  0.11893756     0.01100
C892        C  0.75085182  0.90117760  0.11152624     0.07200
C893        C  0.75118648  0.90593176  0.09246422    -0.05900
H894        H  0.75163954  0.93806243  0.13347600     0.07800
H895        H  0.75151717  0.88780969  0.08180074     0.09000
Cu896      Cu  0.75316492  0.00273300  0.10679159     0.44200
Cu897      Cu  0.75335829  0.95952343  0.06306838     0.42000
Cu898      Cu  0.75685136  0.54532523  0.06276138     0.43900
N899        N  0.75304422  0.55233932  0.10430872    -0.34600
N900        N  0.75423454  0.56767918  0.08825514    -0.28800
C901        C  0.75321145  0.59941429  0.09131680    -0.04900
C902        C  0.75151952  0.60453311  0.11029442     0.07300
C903        C  0.75134860  0.57399128  0.11804495     0.01100
H904        H  0.75324117  0.61719130  0.08036441     0.08700
H905        H  0.75017330  0.56782549  0.13261934     0.07800
N906        N  0.75825382  0.51809345  0.03889540    -0.36000
N907        N  0.75697004  0.98651938  0.03890697    -0.28200
C908        C  0.75832726  0.97612591  0.02127308    -0.03500
C909        C  0.76031277  0.00249663  0.00957666     0.05200
C910        C  0.76036379  0.52868430  0.02131409     0.03300
H911        H  0.75751363  0.95122696  0.01726080     0.08400
H912        H  0.76200649  0.55365113  0.01747866     0.07200
C913        C  0.76319964  0.00062564  0.94971513    -0.05400
C914        C  0.74848092  0.52671354  0.95899096    -0.32800
C915        C  0.74757754  0.52780999  0.97840021     0.36400
C916        C  0.76158343  0.00247842  0.98899839    -0.05700
C917        C  0.77660262  0.97651837  0.97974790    -0.32700
C918        C  0.77750503  0.97543428  0.96030235     0.36400
H919        H  0.73682836  0.54609142  0.95118737     0.16700
O920        O  0.73123509  0.55283373  0.98680071    -0.60200
H921        H  0.78798923  0.95705171  0.98761076     0.16700
O922        O  0.79361294  0.95033445  0.95183365    -0.60300
H923        H  0.77980175  0.93170617  0.95336086     0.43700
H924        H  0.74508386  0.57147256  0.98545656     0.43700
C925        C  0.75069180  0.87020330  0.12180631    -0.05400
C926        C  0.76474936  0.86767639  0.13950705    -0.32800
C927        C  0.76534130  0.83864323  0.14940653     0.36400
C928        C  0.75159319  0.81136775  0.14168994    -0.05700
C929        C  0.73756724  0.81392591  0.12400541    -0.32700
C930        C  0.73669032  0.84297136  0.11420178     0.36400
H931        H  0.77582990  0.88814700  0.14562740     0.16700
O932        O  0.77980200  0.83720791  0.16649034    -0.60200
H933        H  0.72643429  0.79347716  0.11787427     0.16700
O934        O  0.72126036  0.84452794  0.09741390    -0.60300
H935        H  0.69894884  0.85158879  0.10032768     0.43700
H936        H  0.80222792  0.82998145  0.16403861     0.43700
C937        C  0.74718452  0.69360719  0.14061745    -0.05400
C938        C  0.76003512  0.69253724  0.12264421    -0.32800
C939        C  0.76146253  0.66397533  0.11253361     0.36400
C940        C  0.74972131  0.63559796  0.12031622    -0.05700
C941        C  0.73641449  0.63683657  0.13820068    -0.32700
C942        C  0.73505636  0.66537108  0.14830706     0.36400
H943        H  0.76989053  0.71376695  0.11650751     0.16700
O944        O  0.77613346  0.66382415  0.09554191    -0.60200
H945        H  0.72677015  0.61562237  0.14444377     0.16700
O946        O  0.72181295  0.66522540  0.16570096    -0.60300
H947        H  0.69890970  0.67117834  0.16378556     0.43700
H948        H  0.76075084  0.67504033  0.08701630     0.43700
C949        C  0.74788934  0.74526430  0.23936812    -0.05400
C950        C  0.76745222  0.76704190  0.23037538    -0.32800
C951        C  0.76741767  0.76975286  0.21101642     0.36400
C952        C  0.74838323  0.74973656  0.20031401    -0.05700
C953        C  0.72916609  0.72758402  0.20931983    -0.32700
C954        C  0.72859097  0.72545639  0.22869754     0.36400
H955        H  0.78247572  0.78239718  0.23840436     0.16700
O956        O  0.78710054  0.79105578  0.20268489    -0.60200
H957        H  0.71435654  0.71200054  0.20130342     0.16700
O958        O  0.70950399  0.70359383  0.23703388    -0.60300
H959        H  0.72316816  0.68379849  0.23842023     0.43700
H960        H  0.77556172  0.81217841  0.20353002     0.43700
C961        C  0.86606273  0.74776677  0.31676797    -0.05400
C962        C  0.84018206  0.73261161  0.32498560    -0.32800
C963        C  0.81055609  0.73194314  0.31605087     0.36400
C964        C  0.80637964  0.74630304  0.29841649    -0.05700
C965        C  0.83211852  0.76180518  0.29028648    -0.32700
C966        C  0.86169423  0.76274584  0.29932040     0.36400
H967        H  0.84297817  0.72063469  0.33829117     0.16700
O968        O  0.78637520  0.71582938  0.32432559    -0.60200
H969        H  0.82926806  0.77357156  0.27691086     0.16700
O970        O  0.88561447  0.77965696  0.29135724    -0.60300
H971        H  0.89341920  0.76638408  0.28081650     0.43700
H972        H  0.77645065  0.73126877  0.33320819     0.43700
C973        C  0.63080217  0.74039075  0.31823141    -0.05400
C974        C  0.63234253  0.72925476  0.29989546    -0.32800
C975        C  0.66098099  0.72901480  0.28993139     0.36400
C976        C  0.68903736  0.73991557  0.29829302    -0.05700
C977        C  0.68751763  0.75094470  0.31667447    -0.32700
C978        C  0.65881564  0.75129268  0.32661794     0.36400
H979        H  0.61129786  0.72029463  0.29323375     0.16700
O980        O  0.66137915  0.71705176  0.27224172    -0.60200
H981        H  0.70854208  0.75998651  0.32333517     0.16700
O982        O  0.65813681  0.76398649  0.34413306    -0.60300
H983        H  0.66931816  0.74771427  0.35213813     0.43700
H984        H  0.65294543  0.73488122  0.26426088     0.43700
C985        C  0.99459203  0.73872814  0.44906747    -0.05400
C986        C  0.96718501  0.72847656  0.45822655    -0.32800
C987        C  0.96433629  0.73044706  0.47754437     0.36400
C988        C  0.98927849  0.74280804  0.48820707    -0.05700
C989        C  0.51670533  0.75305209  0.47902459    -0.32700
C990        C  0.51959157  0.75097313  0.45971129     0.36400
H991        H  0.94786355  0.71845083  0.45042400     0.16700
O992        O  0.93769178  0.71877752  0.48583381    -0.60200
H993        H  0.53601579  0.76317939  0.48677877     0.16700
O994        O  0.54628961  0.76249018  0.45139484    -0.60300
H995        H  0.56353677  0.74603675  0.45386233     0.43700
H996        H  0.92032168  0.73505356  0.48327384     0.43700
C997        C  0.74287643  0.63402009  0.81760099    -0.05400
C998        C  0.75461138  0.63499857  0.79937416    -0.32800
C999        C  0.75431160  0.66375732  0.78920251     0.36400
C1000       C  0.74213080  0.69251116  0.79720705    -0.05700
C1001       C  0.73026227  0.69144418  0.81544115    -0.32700
C1002       C  0.73057382  0.66264942  0.82560304     0.36400
H1003       H  0.76452404  0.61339886  0.79300298     0.16700
O1004       O  0.76711539  0.66356379  0.77170191    -0.60200
H1005       H  0.72026249  0.71297748  0.82185000     0.16700
O1006       O  0.71727680  0.66251452  0.84298317    -0.59900
H1007       H  0.73285677  0.67300091  0.85110898     0.43700
H1008       H  0.75003444  0.65575520  0.76352194     0.43700
C1009       C  0.73797276  0.86900534  0.81792917    -0.05400
C1010       C  0.74883328  0.86801655  0.79951166    -0.32800
C1011       C  0.74914551  0.83953149  0.78934142     0.36400
C1012       C  0.73794502  0.81112405  0.79739844    -0.05700
C1013       C  0.72671182  0.81217576  0.81576318    -0.32700
C1014       C  0.72673694  0.84068074  0.82602069     0.36400
H1015       H  0.75796685  0.88927849  0.79302868     0.16700
O1016       O  0.76117464  0.83974041  0.77165251    -0.60200
H1017       H  0.71767821  0.79083703  0.82222863     0.16700
O1018       O  0.71443478  0.84084033  0.84364610    -0.60300
H1019       H  0.73066932  0.82913426  0.85139750     0.43700
H1020       H  0.78424663  0.83399815  0.77304724     0.43700
C1021       C  0.67629455  0.76088690  0.64047969    -0.05400
C1022       C  0.67530591  0.76872450  0.62148052    -0.32800
C1023       C  0.64664793  0.76869580  0.61141091     0.36400
C1024       C  0.61794277  0.76070892  0.62027353    -0.05700
C1025       C  0.61882177  0.75340663  0.63933001    -0.32700
C1026       C  0.64743669  0.75356253  0.64941674     0.36400
H1027       H  0.69687405  0.77505930  0.61428010     0.16700
O1028       O  0.64691283  0.77782951  0.59310363    -0.60200
H1029       H  0.59730070  0.74690444  0.64650278     0.16700
O1030       O  0.64691499  0.74529359  0.66785631    -0.60300
H1031       H  0.63979909  0.76514446  0.67439705     0.43700
H1032       H  0.65758405  0.75966169  0.58644020     0.43700
C1033       C  0.79447123  0.75750487  0.63901334    -0.05400
C1034       C  0.82281910  0.74619796  0.64766838    -0.32800
C1035       C  0.85211790  0.74617120  0.63835813     0.36400
C1036       C  0.85369665  0.75770194  0.61996692    -0.05700
C1037       C  0.82534868  0.76867816  0.61118308    -0.32700
C1038       C  0.79596479  0.76858343  0.62047593     0.36400
H1039       H  0.82236133  0.73692069  0.66173374     0.16700
O1040       O  0.87873732  0.73319961  0.64708152    -0.60200
H1041       H  0.82594793  0.77782443  0.59709516     0.16700
O1042       O  0.76916125  0.78049421  0.61147484    -0.60300
H1043       H  0.76161294  0.76241916  0.60395708     0.43700
H1044       H  0.88444997  0.74906614  0.65659975     0.43700
C1045       C  0.73814904  0.75586094  0.69891061    -0.05400
C1046       C  0.76041588  0.73526705  0.70804796    -0.32800
C1047       C  0.76129720  0.73347501  0.72749647     0.36400
C1048       C  0.74045669  0.75328387  0.73808799    -0.05700
C1049       C  0.71881559  0.77445226  0.72893795    -0.32700
C1050       C  0.71716767  0.77544698  0.70953802     0.36400
H1051       H  0.77685598  0.72016240  0.70008506     0.16700
O1052       O  0.78350425  0.71335740  0.73601341    -0.60200
H1053       H  0.70272711  0.78997353  0.73687711     0.16700
O1054       O  0.69590384  0.79666442  0.70109169    -0.60300
H1055       H  0.67504103  0.78621433  0.70159334     0.43700
H1056       H  0.77455510  0.69173199  0.73533765     0.43700
loop_ 
_geom_bond_atom_site_label_1 
_geom_bond_atom_site_label_2 
_geom_bond_distance 
_geom_bond_site_symmetry_2 
_ccdc_geom_bond_type 
C1            N2   1.359       .  A
C1            N6   1.361       .  A
C1          C229   1.491       .  S
N2            C3   1.358       .  A
C3            N4   1.357       .  A
C3          C253   1.479       .  S
N4            C5   1.360       .  A
C5            N6   1.360       .  A
C5          C241   1.488       .  S
C7            N8   1.362       .  A
C7           N12   1.361       .  A
C7          C208   1.491       .  S
N8            C9   1.361       .  A
C9           N10   1.358       .  A
C9          C220   1.489       .  S
N10          C11   1.357       .  A
C11          N12   1.359       .  A
C11         C256   1.478       .  S
N13          C17   1.342       .  A
N13          N14   1.321       .  A
N13         Cu21   2.063       .  S
N14          C15   1.346       .  A
N14         Cu20   2.077       .  S
C15          C16   1.388       .  A
C15          H18   1.081       .  S
C16         C169   1.483       .  S
C16          C17   1.384       .  A
C17          H19   1.082       .  S
Cu20        N551   2.077       .  S
Cu21         N31   2.063       .  S
Cu22         N24   2.070       .  S
Cu22         N30   2.070       .  S
N23          C27   1.344       .  A
N23          N24   1.322       .  A
N23        Cu548   2.077   1_455  S
N24          C25   1.344       .  A
C25          C26   1.386       .  A
C25          H28   1.081       .  S
C26         C181   1.484       .  S
C26          C27   1.387       .  A
C27          H29   1.082       .  S
N30          C34   1.344       .  A
N30         N559   1.320   1_455  A
N31          C32   1.342       .  A
N31         N558   1.320       .  A
C32          C33   1.386       .  A
C32          H35   1.082       .  S
C33         C193   1.484       .  S
C33         C562   1.388       .  A
C34         C561   1.388   1_455  A
C34          H36   1.080       .  S
N37          C41   1.344       .  A
N37          N38   1.320       .  A
N37         Cu45   2.068       .  S
N38          C39   1.346       .  A
N38        Cu572   2.081   1_455  S
C39          C40   1.391       .  A
C39          H42   1.082       .  S
C40         C232   1.491       .  S
C40          C41   1.388       .  A
C41          H43   1.080       .  S
Cu44         N47   2.081       .  S
Cu44        N566   2.081       .  S
Cu45         N55   2.068       .  S
Cu46         N48   2.074       .  S
Cu46         N54   2.074       .  S
N47          C51   1.344       .  A
N47          N48   1.322       .  A
N48          C49   1.346       .  A
C49          C50   1.386       .  A
C49          H52   1.082       .  S
C50         C244   1.486       .  S
C50          C51   1.388       .  A
C51          H53   1.081       .  S
N54          C58   1.345       .  A
N54         N583   1.320       .  A
N55          C56   1.343       .  A
N55         N582   1.320   1_455  A
C56         C585   1.386   1_455  A
C56          H59   1.082       .  S
C57         C196   1.487       .  S
C57          C58   1.389       .  A
C57         C584   1.386       .  A
C58          H60   1.080       .  S
C61          N62   1.359       .  A
C61          N66   1.359       .  A
C61         C136   1.484       .  S
N62          C63   1.359       .  A
C63          N64   1.356       .  A
C63         C145   1.483       .  S
N64          C65   1.357       .  A
C65          N66   1.359       .  A
C65         C160   1.476       .  S
C67          N68   1.358       .  A
C67          N72   1.359       .  A
C67         C172   1.481       .  S
N68          C69   1.357       .  A
C69          N70   1.357       .  A
C69         C157   1.473       .  S
N70          C71   1.358       .  A
C71          N72   1.359       .  A
C71         C184   1.484       .  S
N73          C77   1.346       .  A
N73          N74   1.322       .  A
N73         Cu81   2.077       .  S
N74          C75   1.346       .  A
N74        Cu344   2.083       .  S
C75          C76   1.388       .  A
C75          H78   1.082       .  S
C76         C205   1.487       .  S
C76          C77   1.387       .  A
C77          H79   1.081       .  S
Cu80         N83   2.084       .  S
Cu80        N338   2.083       .  S
Cu81         N91   2.076       .  S
Cu82         N84   2.077       .  S
Cu82         N90   2.077       .  S
N83          C87   1.346       .  A
N83          N84   1.322       .  A
N84          C85   1.346       .  A
C85          C86   1.387       .  A
C85          H88   1.081       .  S
C86         C217   1.488       .  S
C86          C87   1.388       .  A
C87          H89   1.082       .  S
N90          C94   1.346       .  A
N90         N355   1.321       .  A
N91          C92   1.344       .  A
N91         N354   1.321   1_545  A
C92         C357   1.386       .  A
C92          H95   1.082       .  S
C93         C121   1.485       .  S
C93          C94   1.387       .  A
C93         C356   1.386       .  A
C94          H96   1.081       .  S
N97         C101   1.344       .  A
N97          N98   1.322       .  A
N97        Cu105   2.077       .  S
N98          C99   1.346       .  A
N98        Cu104   2.077       .  S
C99         C100   1.387       .  A
C99         H102   1.082       .  S
C100        C133   1.486       .  S
C100        C101   1.387       .  A
C101        H103   1.081       .  S
Cu104       N371   2.076       .  S
Cu105       N115   2.077       .  S
Cu106       N108   2.066       .  S
Cu106       N114   2.067       .  S
N107        C111   1.344       .  A
N107        N108   1.321       .  A
N107       Cu368   2.076       .  S
N108        C109   1.343       .  A
C109        C110   1.387       .  A
C109        H112   1.080       .  S
C110        C148   1.487       .  S
C110        C111   1.389       .  A
C111        H113   1.081       .  S
N114        C118   1.344       .  A
N114        N379   1.321   1_545  A
N115        C116   1.346       .  A
N115        N378   1.321       .  A
C116        C117   1.387       .  A
C116        H119   1.082       .  S
C117        C124   1.484   1_554  S
C117        C382   1.386       .  A
C118        C381   1.386       .  A
C118        H120   1.081       .  S
C121        C126   1.410       .  A
C121        C386   1.404       .  A
C122        C123   1.400       .  A
C122        C385   1.404       .  A
C122        H127   1.083       .  S
C123        C388   1.410       .  A
C123        O128   1.372       .  S
C124        C125   1.405       .  A
C124        C387   1.410       .  A
C125        C126   1.403       .  A
C125        H129   1.083       .  S
C126        O130   1.372       .  S
O128        H132   0.992       .  S
O130        H131   0.992       .  S
C133        C134   1.406       .  A
C133        C138   1.411       .  A
C134        C135   1.402       .  A
C134        H139   1.083       .  S
C135        C136   1.411       .  A
C135        O140   1.371       .  S
C136        C137   1.404       .  A
C137        C138   1.399       .  A
C137        H141   1.084       .  S
C138        O142   1.371       .  S
O140        H144   0.993       .  S
O142        H143   0.993       .  S
C145        C146   1.404       .  A
C145        C150   1.411       .  A
C146        C147   1.400       .  A
C146        H151   1.083       .  S
C147        C148   1.412       .  A
C147        O152   1.371       .  S
C148        C149   1.406       .  A
C149        C150   1.399       .  A
C149        H153   1.082       .  S
C150        O154   1.372       .  S
O152        H156   0.992       .  S
O154        H155   0.991       .  S
C157        C158   1.403       .  A
C157        C162   1.408       .  A
C158        C159   1.399       .  A
C158        H163   1.084       .  S
C159        C160   1.408       .  A
C159        O164   1.371       .  S
C160        C161   1.405       .  A
C161        C162   1.399       .  A
C161        H165   1.084       .  S
C162        O166   1.372       .  S
O164        H168   0.992       .  S
O166        H167   0.992       .  S
C169        C170   1.405       .  A
C169        C174   1.409       .  A
C170        C171   1.399       .  A
C170        H175   1.083       .  S
C171        C172   1.410       .  A
C171        O176   1.372       .  S
C172        C173   1.405       .  A
C173        C174   1.401       .  A
C173        H177   1.084       .  S
C174        O178   1.372       .  S
O176        H180   0.992       .  S
O178        H179   0.991       .  S
C181        C182   1.404       .  A
C181        C186   1.411       .  A
C182        C183   1.399       .  A
C182        H187   1.083       .  S
C183        C184   1.411       .  A
C183        O188   1.372       .  S
C184        C185   1.406       .  A
C185        C186   1.400       .  A
C185        H189   1.083       .  S
C186        O190   1.372       .  S
O188        H192   0.992       .  S
O190        H191   0.992       .  S
C193        C194   1.405       .  A
C193        C726   1.410       .  A
C194        C195   1.400       .  A
C194        H199   1.083       .  S
C195        C196   1.411       .  A
C195        O200   1.371       .  S
C196        C725   1.406       .  A
C197        C198   1.400       .  A
C197        C724   1.406   1_455  A
C197        H201   1.083       .  S
C198        C721   1.410   1_455  A
C198        O202   1.371       .  S
O200        H204   0.993       .  S
O202        H203   0.993       .  S
C205        C206   1.404       .  A
C205        C210   1.410       .  A
C206        C207   1.402       .  A
C206        H211   1.083       .  S
C207        C208   1.413       .  A
C207        O212   1.371       .  S
C208        C209   1.407       .  A
C209        C210   1.403       .  A
C209        H213   1.083       .  S
C210        O214   1.372       .  S
O212        H216   0.992       .  S
O214        H215   0.992       .  S
C217        C218   1.404       .  A
C217        C222   1.412       .  A
C218        C219   1.400       .  A
C218        H223   1.083       .  S
C219        C220   1.413       .  A
C219        O224   1.372       .  S
C220        C221   1.406       .  A
C221        C222   1.404       .  A
C221        H225   1.083       .  S
C222        O226   1.371       .  S
O224        H228   0.992       .  S
O226        H227   0.992       .  S
C229        C230   1.406       .  A
C229        C234   1.413       .  A
C230        C231   1.402       .  A
C230        H235   1.083       .  S
C231        C232   1.412       .  A
C231        O236   1.371       .  S
C232        C233   1.405       .  A
C233        C234   1.401       .  A
C233        H237   1.083       .  S
C234        O238   1.371       .  S
O236        H240   0.993       .  S
O238        H239   0.992       .  S
C241        C242   1.405       .  A
C241        C246   1.413       .  A
C242        C243   1.400       .  A
C242        H247   1.083       .  S
C243        C244   1.410       .  A
C243        O248   1.371       .  S
C244        C245   1.405       .  A
C245        C246   1.403       .  A
C245        H249   1.083       .  S
C246        O250   1.372       .  S
O248        H252   0.991       .  S
O250        H251   0.992       .  S
C253        C254   1.405       .  A
C253        C258   1.408       .  A
C254        C255   1.403       .  A
C254        H259   1.084       .  S
C255        C256   1.409       .  A
C255        O260   1.372       .  S
C256        C257   1.403       .  A
C257        C258   1.400       .  A
C257        H261   1.084       .  S
C258        O262   1.372       .  S
O260        H264   0.991       .  S
O262        H263   0.992       .  S
C265        N266   1.359       .  A
C265        N270   1.361       .  A
C265        C493   1.491       .  S
N266        C267   1.358       .  A
C267        N268   1.357       .  A
C267        C517   1.479       .  S
N268        C269   1.360       .  A
C269        N270   1.360       .  A
C269        C505   1.488       .  S
C271        N272   1.362       .  A
C271        N276   1.361       .  A
C271        C472   1.491       .  S
N272        C273   1.361       .  A
C273        N274   1.358       .  A
C273        C484   1.489       .  S
N274        C275   1.357       .  A
C275        N276   1.359       .  A
C275        C520   1.478       .  S
N277        C281   1.342       .  A
N277        N278   1.321       .  A
N277       Cu285   2.063       .  S
N278        C279   1.346       .  A
N278       Cu284   2.077       .  S
C279        C280   1.388       .  A
C279        H282   1.081       .  S
C280        C433   1.483       .  S
C280        C281   1.384       .  A
C281        H283   1.082       .  S
Cu284       N815   2.077       .  S
Cu285       N295   2.063       .  S
Cu286       N288   2.070       .  S
Cu286       N294   2.070       .  S
N287        C291   1.344       .  A
N287        N288   1.322       .  A
N287       Cu812   2.077   1_455  S
N288        C289   1.344       .  A
C289        C290   1.386       .  A
C289        H292   1.081       .  S
C290        C445   1.484       .  S
C290        C291   1.387       .  A
C291        H293   1.082       .  S
N294        C298   1.344       .  A
N294        N823   1.320   1_455  A
N295        C296   1.342       .  A
N295        N822   1.320       .  A
C296        C297   1.386       .  A
C296        H299   1.082       .  S
C297        C457   1.484       .  S
C297        C826   1.388       .  A
C298        C825   1.388   1_455  A
C298        H300   1.080       .  S
N301        C305   1.344       .  A
N301        N302   1.320       .  A
N301       Cu309   2.068       .  S
N302        C303   1.346       .  A
N302       Cu836   2.081   1_455  S
C303        C304   1.391       .  A
C303        H306   1.082       .  S
C304        C496   1.491       .  S
C304        C305   1.388       .  A
C305        H307   1.080       .  S
Cu308       N830   2.081       .  S
Cu308       N311   2.081       .  S
Cu309       N319   2.068       .  S
Cu310       N312   2.074       .  S
Cu310       N318   2.074       .  S
N311        C315   1.344       .  A
N311        N312   1.322       .  A
N312        C313   1.346       .  A
C313        C314   1.386       .  A
C313        H316   1.082       .  S
C314        C508   1.486       .  S
C314        C315   1.388       .  A
C315        H317   1.081       .  S
N318        C322   1.345       .  A
N318        N847   1.320       .  A
N319        C320   1.343       .  A
N319        N846   1.320   1_455  A
C320        C849   1.386   1_455  A
C320        H323   1.082       .  S
C321        C460   1.487       .  S
C321        C848   1.386       .  A
C321        C322   1.389       .  A
C322        H324   1.080       .  S
C325        N326   1.359       .  A
C325        N330   1.359       .  A
C325        C400   1.484       .  S
N326        C327   1.359       .  A
C327        N328   1.356       .  A
C327        C409   1.483       .  S
N328        C329   1.357       .  A
C329        N330   1.359       .  A
C329        C424   1.476       .  S
C331        N332   1.358       .  A
C331        N336   1.359       .  A
C331        C436   1.481       .  S
N332        C333   1.357       .  A
C333        N334   1.357       .  A
C333        C421   1.473       .  S
N334        C335   1.358       .  A
C335        N336   1.359       .  A
C335        C448   1.484       .  S
N337        C341   1.346       .  A
N337        N338   1.322       .  A
N337       Cu345   2.077       .  S
N338        C339   1.346       .  A
C339        C340   1.388       .  A
C339        H342   1.082       .  S
C340        C469   1.487       .  S
C340        C341   1.387       .  A
C341        H343   1.081       .  S
Cu344       N347   2.084   1_545  S
Cu345       N355   2.076       .  S
Cu346       N348   2.077       .  S
Cu346       N354   2.077       .  S
N347        C351   1.346       .  A
N347        N348   1.322       .  A
N348        C349   1.346       .  A
C349        C350   1.387       .  A
C349        H352   1.081       .  S
C350        C481   1.488       .  S
C350        C351   1.388       .  A
C351        H353   1.082       .  S
N354        C358   1.346       .  A
N355        C356   1.344       .  A
C356        H359   1.082       .  S
C357        C385   1.485       .  S
C357        C358   1.387   1_545  A
C358        H360   1.081       .  S
N361        C365   1.344       .  A
N361        N362   1.322       .  A
N361       Cu369   2.077       .  S
N362        C363   1.346       .  A
N362       Cu368   2.077   1_565  S
C363        C364   1.387       .  A
C363        H366   1.082       .  S
C364        C397   1.486       .  S
C364        C365   1.387       .  A
C365        H367   1.081       .  S
Cu369       N379   2.077       .  S
Cu370       N372   2.066       .  S
Cu370       N378   2.067       .  S
N371        C375   1.344       .  A
N371        N372   1.321       .  A
N372        C373   1.343       .  A
C373        C374   1.387       .  A
C373        H376   1.080       .  S
C374        C412   1.487       .  S
C374        C375   1.389       .  A
C375        H377   1.081       .  S
N378        C382   1.344       .  A
N379        C380   1.346       .  A
C380        C381   1.387   1_565  A
C380        H383   1.082       .  S
C381        C388   1.484   1_554  S
C382        H384   1.081       .  S
C385        C390   1.410   1_545  A
C386        C387   1.400       .  A
C386        H391   1.083       .  S
C387        O392   1.372       .  S
C388        C389   1.405   1_545  A
C389        C390   1.403       .  A
C389        H393   1.083       .  S
C390        O394   1.372       .  S
O392        H396   0.992       .  S
O394        H395   0.992       .  S
C397        C398   1.406       .  A
C397        C402   1.411       .  A
C398        C399   1.402       .  A
C398        H403   1.083       .  S
C399        C400   1.411       .  A
C399        O404   1.371       .  S
C400        C401   1.404       .  A
C401        C402   1.399       .  A
C401        H405   1.084       .  S
C402        O406   1.371       .  S
O404        H408   0.993       .  S
O406        H407   0.993       .  S
C409        C410   1.404       .  A
C409        C414   1.411       .  A
C410        C411   1.400       .  A
C410        H415   1.083       .  S
C411        C412   1.412       .  A
C411        O416   1.371       .  S
C412        C413   1.406       .  A
C413        C414   1.399       .  A
C413        H417   1.082       .  S
C414        O418   1.372       .  S
O416        H420   0.992       .  S
O418        H419   0.991       .  S
C421        C422   1.403       .  A
C421        C426   1.408       .  A
C422        C423   1.399       .  A
C422        H427   1.084       .  S
C423        C424   1.408       .  A
C423        O428   1.371       .  S
C424        C425   1.405       .  A
C425        C426   1.399       .  A
C425        H429   1.084       .  S
C426        O430   1.372       .  S
O428        H432   0.992       .  S
O430        H431   0.992       .  S
C433        C434   1.405       .  A
C433        C438   1.409       .  A
C434        C435   1.399       .  A
C434        H439   1.083       .  S
C435        C436   1.410       .  A
C435        O440   1.372       .  S
C436        C437   1.405       .  A
C437        C438   1.401       .  A
C437        H441   1.084       .  S
C438        O442   1.372       .  S
O440        H444   0.992       .  S
O442        H443   0.991       .  S
C445        C446   1.404       .  A
C445        C450   1.411       .  A
C446        C447   1.399       .  A
C446        H451   1.083       .  S
C447        C448   1.411       .  A
C447        O452   1.372       .  S
C448        C449   1.406       .  A
C449        C450   1.400       .  A
C449        H453   1.083       .  S
C450        O454   1.372       .  S
O452        H456   0.992       .  S
O454        H455   0.992       .  S
C457        C458   1.405       .  A
C457        C990   1.410       .  A
C458        C459   1.400       .  A
C458        H463   1.083       .  S
C459        C460   1.411       .  A
C459        O464   1.371       .  S
C460        C989   1.406       .  A
C461        C988   1.406   1_455  A
C461        C462   1.400       .  A
C461        H465   1.083       .  S
C462        C985   1.410   1_455  A
C462        O466   1.371       .  S
O464        H468   0.993       .  S
O466        H467   0.993       .  S
C469        C470   1.404       .  A
C469        C474   1.410       .  A
C470        C471   1.402       .  A
C470        H475   1.083       .  S
C471        C472   1.413       .  A
C471        O476   1.371       .  S
C472        C473   1.407       .  A
C473        C474   1.403       .  A
C473        H477   1.083       .  S
C474        O478   1.372       .  S
O476        H480   0.992       .  S
O478        H479   0.992       .  S
C481        C482   1.404       .  A
C481        C486   1.412       .  A
C482        C483   1.400       .  A
C482        H487   1.083       .  S
C483        C484   1.413       .  A
C483        O488   1.372       .  S
C484        C485   1.406       .  A
C485        C486   1.404       .  A
C485        H489   1.083       .  S
C486        O490   1.371       .  S
O488        H492   0.992       .  S
O490        H491   0.992       .  S
C493        C494   1.406       .  A
C493        C498   1.413       .  A
C494        C495   1.402       .  A
C494        H499   1.083       .  S
C495        C496   1.412       .  A
C495        O500   1.371       .  S
C496        C497   1.405       .  A
C497        C498   1.401       .  A
C497        H501   1.083       .  S
C498        O502   1.371       .  S
O500        H504   0.992       .  S
O502        H503   0.992       .  S
C505        C506   1.405       .  A
C505        C510   1.413       .  A
C506        C507   1.400       .  A
C506        H511   1.083       .  S
C507        C508   1.410       .  A
C507        O512   1.371       .  S
C508        C509   1.405       .  A
C509        C510   1.403       .  A
C509        H513   1.083       .  S
C510        O514   1.372       .  S
O512        H516   0.991       .  S
O514        H515   0.992       .  S
C517        C518   1.405       .  A
C517        C522   1.408       .  A
C518        C519   1.403       .  A
C518        H523   1.084       .  S
C519        C520   1.409       .  A
C519        O524   1.372       .  S
C520        C521   1.403       .  A
C521        C522   1.400       .  A
C521        H525   1.084       .  S
C522        O526   1.372       .  S
O524        H528   0.991       .  S
O526        H527   0.992       .  S
C529        N530   1.359       .  A
C529        N534   1.361       .  A
C529        C757   1.491       .  S
N530        C531   1.358       .  A
C531        N532   1.357       .  A
C531        C781   1.479       .  S
N532        C533   1.360       .  A
C533        N534   1.360       .  A
C533        C769   1.488       .  S
C535        N536   1.362       .  A
C535        N540   1.361       .  A
C535        C736   1.491       .  S
N536        C537   1.361       .  A
C537        N538   1.358       .  A
C537        C748   1.489       .  S
N538        C539   1.357       .  A
C539        N540   1.359       .  A
C539        C784   1.478       .  S
N541        C545   1.342       .  A
N541        N542   1.321       .  A
N541       Cu549   2.063       .  S
N542        C543   1.346       .  A
N542       Cu548   2.077       .  S
C543        C544   1.388       .  A
C543        H546   1.081       .  S
C544        C697   1.483       .  S
C544        C545   1.384       .  A
C545        H547   1.082       .  S
Cu549       N559   2.063       .  S
Cu550       N552   2.070       .  S
Cu550       N558   2.070       .  S
N551        C555   1.344       .  A
N551        N552   1.322       .  A
N552        C553   1.344       .  A
C553        C554   1.386       .  A
C553        H556   1.081       .  S
C554        C709   1.484       .  S
C554        C555   1.387       .  A
C555        H557   1.082       .  S
N558        C562   1.344       .  A
N559        C560   1.342       .  A
C560        C561   1.386       .  A
C560        H563   1.082       .  S
C561        C721   1.484       .  S
C562        H564   1.080       .  S
N565        C569   1.344       .  A
N565        N566   1.320       .  A
N565       Cu573   2.068       .  S
N566        C567   1.346       .  A
C567        C568   1.391       .  A
C567        H570   1.082       .  S
C568        C760   1.491       .  S
C568        C569   1.388       .  A
C569        H571   1.080       .  S
Cu572       N575   2.081       .  S
Cu573       N583   2.068       .  S
Cu574       N576   2.074       .  S
Cu574       N582   2.074       .  S
N575        C579   1.344       .  A
N575        N576   1.322       .  A
N576        C577   1.346       .  A
C577        C578   1.386       .  A
C577        H580   1.082       .  S
C578        C772   1.486       .  S
C578        C579   1.388       .  A
C579        H581   1.081       .  S
N582        C586   1.345       .  A
N583        C584   1.343       .  A
C584        H587   1.082       .  S
C585        C724   1.487       .  S
C585        C586   1.389       .  A
C586        H588   1.080       .  S
C589        N590   1.359       .  A
C589        N594   1.359       .  A
C589        C664   1.484       .  S
N590        C591   1.359       .  A
C591        N592   1.356       .  A
C591        C673   1.483       .  S
N592        C593   1.357       .  A
C593        N594   1.359       .  A
C593        C688   1.476       .  S
C595        N596   1.358       .  A
C595        N600   1.359       .  A
C595        C700   1.481       .  S
N596        C597   1.357       .  A
C597        N598   1.357       .  A
C597        C685   1.473       .  S
N598        C599   1.358       .  A
C599        N600   1.359       .  A
C599        C712   1.484       .  S
N601        C605   1.346       .  A
N601        N602   1.322       .  A
N601       Cu609   2.077       .  S
N602        C603   1.346       .  A
N602       Cu872   2.083       .  S
C603        C604   1.388       .  A
C603        H606   1.082       .  S
C604        C733   1.487       .  S
C604        C605   1.387       .  A
C605        H607   1.081       .  S
Cu608       N866   2.083       .  S
Cu608       N611   2.084       .  S
Cu609       N619   2.076       .  S
Cu610       N612   2.077       .  S
Cu610       N618   2.077       .  S
N611        C615   1.346       .  A
N611        N612   1.322       .  A
N612        C613   1.346       .  A
C613        C614   1.387       .  A
C613        H616   1.081       .  S
C614        C745   1.488       .  S
C614        C615   1.388       .  A
C615        H617   1.082       .  S
N618        C622   1.346       .  A
N618        N883   1.321       .  A
N619        C620   1.344       .  A
N619        N882   1.321   1_545  A
C620        C885   1.386       .  A
C620        H623   1.082       .  S
C621        C649   1.485       .  S
C621        C884   1.386       .  A
C621        C622   1.387       .  A
C622        H624   1.081       .  S
N625        C629   1.344       .  A
N625        N626   1.322       .  A
N625       Cu633   2.077       .  S
N626        C627   1.346       .  A
N626       Cu632   2.077       .  S
C627        C628   1.387       .  A
C627        H630   1.082       .  S
C628        C661   1.486       .  S
C628        C629   1.387       .  A
C629        H631   1.081       .  S
Cu632       N899   2.076       .  S
Cu633       N643   2.077       .  S
Cu634       N636   2.066       .  S
Cu634       N642   2.067       .  S
N635        C639   1.344       .  A
N635        N636   1.321       .  A
N635       Cu896   2.076       .  S
N636        C637   1.343       .  A
C637        C638   1.387       .  A
C637        H640   1.080       .  S
C638        C676   1.487       .  S
C638        C639   1.389       .  A
C639        H641   1.081       .  S
N642        C646   1.344       .  A
N642        N907   1.321   1_545  A
N643        C644   1.346       .  A
N643        N906   1.321       .  A
C644        C645   1.387       .  A
C644        H647   1.082       .  S
C645        C652   1.484   1_554  S
C645        C910   1.386       .  A
C646        C909   1.386       .  A
C646        H648   1.081       .  S
C649        C914   1.404       .  A
C649        C654   1.410       .  A
C650        C913   1.404       .  A
C650        C651   1.400       .  A
C650        H655   1.083       .  S
C651        C916   1.410       .  A
C651        O656   1.372       .  S
C652        C915   1.410       .  A
C652        C653   1.405       .  A
C653        C654   1.403       .  A
C653        H657   1.083       .  S
C654        O658   1.372       .  S
O656        H660   0.992       .  S
O658        H659   0.992       .  S
C661        C662   1.406       .  A
C661        C666   1.411       .  A
C662        C663   1.402       .  A
C662        H667   1.083       .  S
C663        C664   1.411       .  A
C663        O668   1.371       .  S
C664        C665   1.404       .  A
C665        C666   1.399       .  A
C665        H669   1.084       .  S
C666        O670   1.371       .  S
O668        H672   0.993       .  S
O670        H671   0.993       .  S
C673        C674   1.404       .  A
C673        C678   1.411       .  A
C674        C675   1.400       .  A
C674        H679   1.083       .  S
C675        C676   1.412       .  A
C675        O680   1.371       .  S
C676        C677   1.406       .  A
C677        C678   1.399       .  A
C677        H681   1.082       .  S
C678        O682   1.372       .  S
O680        H684   0.992       .  S
O682        H683   0.991       .  S
C685        C686   1.403       .  A
C685        C690   1.408       .  A
C686        C687   1.399       .  A
C686        H691   1.084       .  S
C687        C688   1.408       .  A
C687        O692   1.371       .  S
C688        C689   1.405       .  A
C689        C690   1.399       .  A
C689        H693   1.084       .  S
C690        O694   1.372       .  S
O692        H696   0.992       .  S
O694        H695   0.992       .  S
C697        C698   1.405       .  A
C697        C702   1.409       .  A
C698        C699   1.399       .  A
C698        H703   1.083       .  S
C699        C700   1.410       .  A
C699        O704   1.372       .  S
C700        C701   1.405       .  A
C701        C702   1.401       .  A
C701        H705   1.084       .  S
C702        O706   1.372       .  S
O704        H708   0.992       .  S
O706        H707   0.991       .  S
C709        C710   1.404       .  A
C709        C714   1.411       .  A
C710        C711   1.399       .  A
C710        H715   1.083       .  S
C711        C712   1.411       .  A
C711        O716   1.372       .  S
C712        C713   1.406       .  A
C713        C714   1.400       .  A
C713        H717   1.083       .  S
C714        O718   1.372       .  S
O716        H720   0.992       .  S
O718        H719   0.992       .  S
C721        C722   1.405       .  A
C722        C723   1.400       .  A
C722        H727   1.083       .  S
C723        C724   1.411       .  A
C723        O728   1.371       .  S
C725        C726   1.400       .  A
C725        H729   1.083       .  S
C726        O730   1.371       .  S
O728        H732   0.993       .  S
O730        H731   0.993       .  S
C733        C734   1.404       .  A
C733        C738   1.410       .  A
C734        C735   1.402       .  A
C734        H739   1.083       .  S
C735        C736   1.413       .  A
C735        O740   1.371       .  S
C736        C737   1.407       .  A
C737        C738   1.403       .  A
C737        H741   1.083       .  S
C738        O742   1.372       .  S
O740        H744   0.992       .  S
O742        H743   0.992       .  S
C745        C746   1.404       .  A
C745        C750   1.412       .  A
C746        C747   1.400       .  A
C746        H751   1.083       .  S
C747        C748   1.413       .  A
C747        O752   1.372       .  S
C748        C749   1.406       .  A
C749        C750   1.404       .  A
C749        H753   1.083       .  S
C750        O754   1.371       .  S
O752        H756   0.992       .  S
O754        H755   0.992       .  S
C757        C758   1.406       .  A
C757        C762   1.413       .  A
C758        C759   1.402       .  A
C758        H763   1.083       .  S
C759        C760   1.412       .  A
C759        O764   1.371       .  S
C760        C761   1.405       .  A
C761        C762   1.401       .  A
C761        H765   1.083       .  S
C762        O766   1.371       .  S
O764        H768   0.992       .  S
O766        H767   0.992       .  S
C769        C770   1.405       .  A
C769        C774   1.413       .  A
C770        C771   1.400       .  A
C770        H775   1.083       .  S
C771        C772   1.410       .  A
C771        O776   1.371       .  S
C772        C773   1.405       .  A
C773        C774   1.403       .  A
C773        H777   1.083       .  S
C774        O778   1.372       .  S
O776        H780   0.991       .  S
O778        H779   0.992       .  S
C781        C782   1.405       .  A
C781        C786   1.408       .  A
C782        C783   1.403       .  A
C782        H787   1.084       .  S
C783        C784   1.409       .  A
C783        O788   1.372       .  S
C784        C785   1.403       .  A
C785        C786   1.400       .  A
C785        H789   1.084       .  S
C786        O790   1.372       .  S
O788        H792   0.991       .  S
O790        H791   0.992       .  S
C793        N794   1.359       .  A
C793        N798   1.361       .  A
C793       C1021   1.491       .  S
N794        C795   1.358       .  A
C795        N796   1.357       .  A
C795       C1045   1.479       .  S
N796        C797   1.360       .  A
C797        N798   1.360       .  A
C797       C1033   1.488       .  S
C799        N800   1.362       .  A
C799        N804   1.361       .  A
C799       C1000   1.491       .  S
N800        C801   1.361       .  A
C801        N802   1.358       .  A
C801       C1012   1.489       .  S
N802        C803   1.357       .  A
C803        N804   1.359       .  A
C803       C1048   1.478       .  S
N805        C809   1.342       .  A
N805        N806   1.321       .  A
N805       Cu813   2.063       .  S
N806        C807   1.346       .  A
N806       Cu812   2.077       .  S
C807        C808   1.388       .  A
C807        H810   1.081       .  S
C808        C961   1.483       .  S
C808        C809   1.384       .  A
C809        H811   1.082       .  S
Cu813       N823   2.063       .  S
Cu814       N816   2.070       .  S
Cu814       N822   2.070       .  S
N815        C819   1.344       .  A
N815        N816   1.322       .  A
N816        C817   1.344       .  A
C817        C818   1.386       .  A
C817        H820   1.081       .  S
C818        C973   1.484       .  S
C818        C819   1.387       .  A
C819        H821   1.082       .  S
N822        C826   1.344       .  A
N823        C824   1.342       .  A
C824        C825   1.386       .  A
C824        H827   1.082       .  S
C825        C985   1.484       .  S
C826        H828   1.080       .  S
N829        C833   1.344       .  A
N829        N830   1.320       .  A
N829       Cu837   2.068       .  S
N830        C831   1.346       .  A
C831        C832   1.391       .  A
C831        H834   1.082       .  S
C832       C1024   1.491       .  S
C832        C833   1.388       .  A
C833        H835   1.080       .  S
Cu836       N839   2.081       .  S
Cu837       N847   2.068       .  S
Cu838       N840   2.074       .  S
Cu838       N846   2.074       .  S
N839        C843   1.344       .  A
N839        N840   1.322       .  A
N840        C841   1.346       .  A
C841        C842   1.386       .  A
C841        H844   1.082       .  S
C842       C1036   1.486       .  S
C842        C843   1.388       .  A
C843        H845   1.081       .  S
N846        C850   1.345       .  A
N847        C848   1.343       .  A
C848        H851   1.082       .  S
C849        C988   1.487       .  S
C849        C850   1.389       .  A
C850        H852   1.080       .  S
C853        N854   1.359       .  A
C853        N858   1.359       .  A
C853        C928   1.484       .  S
N854        C855   1.359       .  A
C855        N856   1.356       .  A
C855        C937   1.483       .  S
N856        C857   1.357       .  A
C857        N858   1.359       .  A
C857        C952   1.476       .  S
C859        N860   1.358       .  A
C859        N864   1.359       .  A
C859        C964   1.481       .  S
N860        C861   1.357       .  A
C861        N862   1.357       .  A
C861        C949   1.473       .  S
N862        C863   1.358       .  A
C863        N864   1.359       .  A
C863        C976   1.484       .  S
N865        C869   1.346       .  A
N865        N866   1.322       .  A
N865       Cu873   2.077       .  S
N866        C867   1.346       .  A
C867        C868   1.388       .  A
C867        H870   1.082       .  S
C868        C997   1.487       .  S
C868        C869   1.387       .  A
C869        H871   1.081       .  S
Cu872       N875   2.084   1_545  S
Cu873       N883   2.076       .  S
Cu874       N876   2.077       .  S
Cu874       N882   2.077       .  S
N875        C879   1.346       .  A
N875        N876   1.322       .  A
N876        C877   1.346       .  A
C877        C878   1.387       .  A
C877        H880   1.081       .  S
C878       C1009   1.488       .  S
C878        C879   1.388       .  A
C879        H881   1.082       .  S
N882        C886   1.346       .  A
N883        C884   1.344       .  A
C884        H887   1.082       .  S
C885        C913   1.485       .  S
C885        C886   1.387   1_545  A
C886        H888   1.081       .  S
N889        C893   1.344       .  A
N889        N890   1.322       .  A
N889       Cu897   2.077       .  S
N890        C891   1.346       .  A
N890       Cu896   2.077   1_565  S
C891        C892   1.387       .  A
C891        H894   1.082       .  S
C892        C925   1.486       .  S
C892        C893   1.387       .  A
C893        H895   1.081       .  S
Cu897       N907   2.077       .  S
Cu898       N900   2.066       .  S
Cu898       N906   2.067       .  S
N899        C903   1.344       .  A
N899        N900   1.321       .  A
N900        C901   1.343       .  A
C901        C902   1.387       .  A
C901        H904   1.080       .  S
C902        C940   1.487       .  S
C902        C903   1.389       .  A
C903        H905   1.081       .  S
N906        C910   1.344       .  A
N907        C908   1.346       .  A
C908        C909   1.387   1_565  A
C908        H911   1.082       .  S
C909        C916   1.484   1_554  S
C910        H912   1.081       .  S
C913        C918   1.410   1_545  A
C914        C915   1.400       .  A
C914        H919   1.083       .  S
C915        O920   1.372       .  S
C916        C917   1.405   1_545  A
C917        C918   1.403       .  A
C917        H921   1.083       .  S
C918        O922   1.372       .  S
O920        H924   0.992       .  S
O922        H923   0.992       .  S
C925        C926   1.406       .  A
C925        C930   1.411       .  A
C926        C927   1.402       .  A
C926        H931   1.083       .  S
C927        C928   1.411       .  A
C927        O932   1.371       .  S
C928        C929   1.404       .  A
C929        C930   1.399       .  A
C929        H933   1.084       .  S
C930        O934   1.371       .  S
O932        H936   0.993       .  S
O934        H935   0.993       .  S
C937        C938   1.404       .  A
C937        C942   1.411       .  A
C938        C939   1.400       .  A
C938        H943   1.083       .  S
C939        C940   1.412       .  A
C939        O944   1.371       .  S
C940        C941   1.406       .  A
C941        C942   1.399       .  A
C941        H945   1.082       .  S
C942        O946   1.372       .  S
O944        H948   0.992       .  S
O946        H947   0.991       .  S
C949        C950   1.403       .  A
C949        C954   1.408       .  A
C950        C951   1.399       .  A
C950        H955   1.084       .  S
C951        C952   1.408       .  A
C951        O956   1.371       .  S
C952        C953   1.405       .  A
C953        C954   1.399       .  A
C953        H957   1.084       .  S
C954        O958   1.372       .  S
O956        H960   0.992       .  S
O958        H959   0.992       .  S
C961        C962   1.405       .  A
C961        C966   1.409       .  A
C962        C963   1.399       .  A
C962        H967   1.083       .  S
C963        C964   1.410       .  A
C963        O968   1.372       .  S
C964        C965   1.405       .  A
C965        C966   1.401       .  A
C965        H969   1.084       .  S
C966        O970   1.372       .  S
O968        H972   0.992       .  S
O970        H971   0.991       .  S
C973        C974   1.404       .  A
C973        C978   1.411       .  A
C974        C975   1.399       .  A
C974        H979   1.083       .  S
C975        C976   1.411       .  A
C975        O980   1.372       .  S
C976        C977   1.406       .  A
C977        C978   1.400       .  A
C977        H981   1.083       .  S
C978        O982   1.372       .  S
O980        H984   0.992       .  S
O982        H983   0.992       .  S
C985        C986   1.405       .  A
C986        C987   1.400       .  A
C986        H991   1.083       .  S
C987        C988   1.411       .  A
C987        O992   1.371       .  S
C989        C990   1.400       .  A
C989        H993   1.083       .  S
C990        O994   1.371       .  S
O992        H996   0.993       .  S
O994        H995   0.993       .  S
C997        C998   1.404       .  A
C997       C1002   1.410       .  A
C998        C999   1.402       .  A
C998       H1003   1.083       .  S
C999       C1000   1.413       .  A
C999       O1004   1.371       .  S
C1000      C1001   1.407       .  A
C1001      C1002   1.403       .  A
C1001      H1005   1.083       .  S
C1002      O1006   1.372       .  S
O1004      H1008   0.992       .  S
O1006      H1007   0.992       .  S
C1009      C1010   1.404       .  A
C1009      C1014   1.412       .  A
C1010      C1011   1.400       .  A
C1010      H1015   1.083       .  S
C1011      C1012   1.413       .  A
C1011      O1016   1.372       .  S
C1012      C1013   1.406       .  A
C1013      C1014   1.404       .  A
C1013      H1017   1.083       .  S
C1014      O1018   1.371       .  S
O1016      H1020   0.992       .  S
O1018      H1019   0.992       .  S
C1021      C1022   1.406       .  A
C1021      C1026   1.413       .  A
C1022      C1023   1.402       .  A
C1022      H1027   1.083       .  S
C1023      C1024   1.412       .  A
C1023      O1028   1.371       .  S
C1024      C1025   1.405       .  A
C1025      C1026   1.401       .  A
C1025      H1029   1.083       .  S
C1026      O1030   1.371       .  S
O1028      H1032   0.992       .  S
O1030      H1031   0.992       .  S
C1033      C1034   1.405       .  A
C1033      C1038   1.413       .  A
C1034      C1035   1.400       .  A
C1034      H1039   1.083       .  S
C1035      C1036   1.410       .  A
C1035      O1040   1.371       .  S
C1036      C1037   1.405       .  A
C1037      C1038   1.403       .  A
C1037      H1041   1.083       .  S
C1038      O1042   1.372       .  S
O1040      H1044   0.991       .  S
O1042      H1043   0.992       .  S
C1045      C1046   1.405       .  A
C1045      C1050   1.408       .  A
C1046      C1047   1.403       .  A
C1046      H1051   1.084       .  S
C1047      C1048   1.409       .  A
C1047      O1052   1.372       .  S
C1048      C1049   1.403       .  A
C1049      C1050   1.400       .  A
C1049      H1053   1.084       .  S
C1050      O1054   1.372       .  S
O1052      H1056   0.991       .  S
O1054      H1055   0.992       .  S
