geometry optimzed in LAMMPS
_audit_creation_date              2020-11-30 
_audit_creation_method            'lammps2cif' 
_symmetry_space_group_name_H-M    'P1' 
_symmetry_Int_Tables_number       1 
_symmetry_cell_setting            triclinic 
loop_ 
_symmetry_equiv_pos_as_xyz 
  x,y,z 
_cell_length_a                    24.04794735 
_cell_length_b                    23.706458364042014 
_cell_length_c                    43.61156040189621 
_cell_angle_alpha                 90.62661177239974 
_cell_angle_beta                  91.15836854318569 
_cell_angle_gamma                 91.25747693972882 
loop_ 
_atom_site_label 
_atom_site_type_symbol 
_atom_site_fract_x 
_atom_site_fract_y 
_atom_site_fract_z 
_atom_site_charge 
C1          C  0.25033289  0.98595541  0.21631552     0.03000
C2          C  0.21969100  0.98008033  0.24296957    -0.13100
C3          C  0.24648113  0.97306834  0.27143862     0.00500
C4          C  0.30495330  0.97163846  0.27296957    -0.11600
C5          C  0.33698029  0.97777712  0.24617604     0.03000
C6          C  0.30849454  0.98592169  0.21797428    -0.11100
H7          H  0.17461806  0.97984178  0.24142341     0.08600
H8          H  0.32467507  0.96335995  0.29491032     0.06100
H9          H  0.33086394  0.99206251  0.19697775     0.06000
C10         C  0.48745896  0.95366885  0.22214958     0.03000
C11         C  0.42924680  0.95741209  0.22100704    -0.13100
C12         C  0.39938480  0.97390732  0.24730954     0.00500
C13         C  0.42990803  0.98649951  0.27471678    -0.11600
C14         C  0.48799110  0.98199961  0.27593373     0.03000
C15         C  0.51590409  0.96534257  0.24971194    -0.11100
H16         H  0.40790396  0.94609051  0.19970998     0.08600
H17         H  0.40925787  0.00102221  0.29503289     0.06100
H18         H  0.56077949  0.96192259  0.25068851     0.06000
C19         C  0.85880388  0.32235206  0.22100946     0.03000
C20         C  0.85852583  0.38180553  0.22070863    -0.13100
C21         C  0.86830244  0.41448106  0.24798381     0.00500
C22         C  0.87885981  0.38484827  0.27542684    -0.11600
C23         C  0.87585213  0.32591992  0.27611419     0.03000
C24         C  0.86688520  0.29510755  0.24899347    -0.11100
H25         H  0.84882108  0.40131433  0.19911502     0.08600
H26         H  0.88800917  0.40639710  0.29688325     0.06100
H27         H  0.86653204  0.24941954  0.24985524     0.06000
C28         C  0.85650472  0.56766186  0.22058182     0.03000
C29         C  0.85509511  0.59739240  0.24840113    -0.13100
C30         C  0.85931578  0.56893781  0.27616096     0.00500
C31         C  0.86262847  0.50989006  0.27608920    -0.11600
C32         C  0.86524026  0.47838258  0.24822909     0.03000
C33         C  0.86347574  0.50902732  0.22055929    -0.11100
H34         H  0.85119729  0.64287807  0.24845036     0.08600
H35         H  0.86249941  0.48985071  0.29814725     0.06100
H36         H  0.86686346  0.48834419  0.19856405     0.06000
O37         O  0.89424606  0.00050618  0.06061989    -0.80200
O38         O  0.81105469  0.93283317  0.43551494    -0.80300
O39         O  0.93441002  0.07597473  0.47577874    -0.80300
O40         O  0.76102868  0.95042425  0.03344114    -0.80200
O41         O  0.86550245  0.02840773  0.45228934    -0.80300
O42         O  0.82016028  0.91566198  0.06710027    -0.80300
O43         O  0.75695986  0.95885074  0.47214141    -0.80200
O44         O  0.86485968  0.05026554  0.02065995    -0.80300
C45         C  0.87209679  0.04453562  0.04942338     1.09500
C46         C  0.76570504  0.95287000  0.44402935     1.09300
C47         C  0.89669324  0.07344932  0.45512897     1.09500
C48         C  0.77338311  0.93724093  0.06067633     1.09400
O49         O  0.89009377  0.83888343  0.03438573    -0.80200
O50         O  0.91737269  0.94519158  0.42224956    -0.80300
O51         O  0.97346218  0.01197462  0.02338065    -0.80200
O52         O  0.80274194  0.84488068  0.46682587    -0.80200
O53         O  0.89273160  0.86120602  0.46194966    -0.80300
O54         O  0.97054578  0.92208603  0.03037213    -0.80200
O55         O  0.79917899  0.83704602  0.02859739    -0.80200
O56         O  0.96653674  0.96981146  0.46371810    -0.80300
Co57       Co  0.89357407  0.91963505  0.04539947     1.51500
Co58       Co  0.88149223  0.94287164  0.46004557     1.51700
Co59       Co  0.90724324  0.00768755  0.49263398     1.51600
Co60       Co  0.78341511  0.90091402  0.50054653     1.51500
O61         O  0.86047792  0.93903716  0.50377014    -1.42200
C62         C  0.84359746  0.81455757  0.03830182     1.09400
C63         C  0.96414498  0.95594418  0.43477460     1.09500
C64         C  0.99554692  0.96878758  0.03445499     1.09400
C65         C  0.84998248  0.83024298  0.45671533     1.09400
C66         C  0.75924302  0.65038364  0.36325119    -0.17900
C67         C  0.75811072  0.68610385  0.38899241    -0.20100
C68         C  0.80674512  0.71435547  0.39969699     0.20600
C69         C  0.85719721  0.70605196  0.38444541    -0.03000
C70         C  0.85830012  0.67021628  0.35833063    -0.06100
C71         C  0.80897875  0.64237698  0.34765951     0.20800
C72         C  0.90843052  0.66321642  0.34253304     0.19000
C73         C  0.95708802  0.69145322  0.35324069    -0.17600
C74         C  0.95600274  0.72682189  0.37914089    -0.19800
C75         C  0.90622986  0.73465659  0.39478493     0.20500
C76         C  0.90425566  0.77212216  0.41988720    -0.32800
C77         C  0.85367456  0.78234921  0.43457826     0.01200
C78         C  0.80534715  0.75221688  0.42469518    -0.24100
C79         C  0.81004446  0.60791778  0.32127021    -0.28700
C80         C  0.85957531  0.60150531  0.30526799     0.06900
C81         C  0.90868058  0.62898112  0.31600934    -0.27400
H82         H  0.72100772  0.62947636  0.35532284     0.11600
H83         H  0.71898666  0.69211853  0.40034331     0.12700
H84         H  0.99589960  0.68664012  0.34139439     0.11800
H85         H  0.99397706  0.74871184  0.38668086     0.11000
H86         H  0.94175208  0.79529796  0.42704222     0.16400
H87         H  0.76608263  0.75999332  0.43558367     0.12300
H88         H  0.77217240  0.58706478  0.31270606     0.15200
H89         H  0.94676751  0.62420555  0.30343664     0.14900
C90         C  0.93291983  0.66282897  0.09654590    -0.17900
C91         C  0.93486085  0.62874027  0.12249630    -0.20100
C92         C  0.89093470  0.62820853  0.14317510     0.20600
C93         C  0.84387683  0.66131856  0.13729533    -0.03000
C94         C  0.84141669  0.69480626  0.11075594    -0.06100
C95         C  0.88665188  0.69634022  0.09059164     0.20800
C96         C  0.79456452  0.72813841  0.10495163     0.19000
C97         C  0.75051573  0.72756410  0.12561155    -0.17600
C98         C  0.75331350  0.69501989  0.15215430    -0.19800
C99         C  0.79998780  0.66212464  0.15831996     0.20500
C100        C  0.80417026  0.63093744  0.18540322    -0.32800
C101        C  0.85118320  0.59829872  0.19140292     0.01200
C102        C  0.89387502  0.59625542  0.16999548    -0.24100
C103        C  0.88581339  0.73300056  0.06553310    -0.28700
C104        C  0.83987774  0.76731925  0.06004247     0.06900
C105        C  0.79365591  0.76328649  0.07930885    -0.27400
H106        H  0.96793554  0.66346903  0.08129883     0.11600
H107        H  0.97126424  0.60360302  0.12671381     0.12700
H108        H  0.71437608  0.75317971  0.12155245     0.11800
H109        H  0.71923911  0.69604988  0.16801716     0.11000
H110        H  0.77108815  0.63210207  0.20191610     0.16400
H111        H  0.93018696  0.57123915  0.17478951     0.12300
H112        H  0.92168242  0.73638501  0.05094407     0.15200
H113        H  0.75851978  0.79048108  0.07562046     0.14900
C114        C  0.97724931  0.22899028  0.39555302    -0.17900
C115        C  0.97498326  0.26376561  0.36985049    -0.20100
C116        C  0.92666818  0.26489834  0.35129093     0.20600
C117        C  0.87965919  0.23169574  0.35917915    -0.03300
C118        C  0.88187366  0.19685158  0.38514543    -0.06100
C119        C  0.93119142  0.19489893  0.40315074     0.20800
C120        C  0.83538293  0.16249120  0.39243601     0.19000
C121        C  0.78650238  0.16480721  0.37446240    -0.17600
C122        C  0.78436328  0.19912123  0.34865523    -0.19800
C123        C  0.83096411  0.23191786  0.34058312     0.20500
C124        C  0.83017391  0.26383924  0.31382291    -0.32800
C125        C  0.87712904  0.29588442  0.30550556     0.01200
C126        C  0.92489252  0.29737495  0.32455612    -0.24100
C127        C  0.93434570  0.15708618  0.42758970    -0.28700
C128        C  0.88921647  0.12052156  0.43379111     0.06900
C129        C  0.83934261  0.12467939  0.41676701    -0.27400
H130        H  0.01540794  0.22795762  0.40916120     0.11600
H131        H  0.01137572  0.28899133  0.36416905     0.12700
H132        H  0.75032221  0.13915007  0.37999682     0.11800
H133        H  0.74657048  0.19924596  0.33469771     0.11000
H134        H  0.79323570  0.26331540  0.29911717     0.16400
H135        H  0.96102847  0.32223113  0.31799145     0.12300
H136        H  0.97302495  0.15378302  0.44059257     0.15200
H137        H  0.80428210  0.09701222  0.42176089     0.14900
C138        C  0.90812438  0.27623908  0.11374514    -0.17900
C139        C  0.90924584  0.23732252  0.08934808    -0.20100
C140        C  0.88051888  0.18526243  0.09101756     0.20600
C141        C  0.84910508  0.17298441  0.11723224    -0.03000
C142        C  0.84746940  0.21252932  0.14168568    -0.06100
C143        C  0.87789262  0.26403208  0.14017737     0.20800
C144        C  0.81692660  0.19962278  0.16807119     0.19000
C145        C  0.78729227  0.14806937  0.16954368    -0.17600
C146        C  0.78954680  0.10861364  0.14555380    -0.19800
C147        C  0.82103803  0.12029340  0.11955907     0.20500
C148        C  0.82675220  0.07937553  0.09644549    -0.32800
C149        C  0.85896489  0.09084005  0.07067709     0.01200
C150        C  0.88445751  0.14433901  0.06759125    -0.24100
C151        C  0.87921604  0.30133622  0.16555162    -0.28700
C152        C  0.85064466  0.28763782  0.19244749     0.06900
C153        C  0.81814867  0.23747714  0.19300872    -0.27400
H154        H  0.93166865  0.31554990  0.11213572     0.11600
H155        H  0.93363181  0.24744224  0.06944330     0.12700
H156        H  0.76348660  0.13763761  0.18961829     0.11800
H157        H  0.76744911  0.06852567  0.14757150     0.11000
H158        H  0.80746218  0.03796742  0.09887821     0.16400
H159        H  0.91005314  0.15276253  0.04789839     0.12300
H160        H  0.90458048  0.33965399  0.16491537     0.15200
H161        H  0.79506848  0.22700958  0.21335020     0.14900
C162        C  0.53283251  0.93399384  0.38309041    -0.17900
C163        C  0.57285543  0.92912894  0.40657323    -0.20100
C164        C  0.62641079  0.95275172  0.40336227     0.20600
C165        C  0.63950297  0.98279232  0.37661139    -0.03000
C166        C  0.59872460  0.98897216  0.35333316    -0.06100
C167        C  0.54546837  0.96340737  0.35627694     0.20800
C168        C  0.61198248  0.01885032  0.32659441     0.19000
C169        C  0.66543697  0.04271791  0.32341191    -0.17600
C170        C  0.70628889  0.03530388  0.34612423    -0.19800
C171        C  0.69388460  0.00500543  0.37263880     0.20500
C172        C  0.73518234  0.99528373  0.39490464    -0.32800
C173        C  0.72209613  0.96567725  0.42151967     0.01200
C174        C  0.66761435  0.94551893  0.42600647    -0.24100
C175        C  0.50696208  0.96519997  0.33169924    -0.28700
C176        C  0.52124848  0.99239652  0.30441886     0.06900
C177        C  0.57261118  0.02164459  0.30273055    -0.27400
H178        H  0.49224929  0.91407872  0.38571816     0.11600
H179        H  0.56232400  0.90576379  0.42694779     0.12700
H180        H  0.67615596  0.06561882  0.30291066     0.11800
H181        H  0.74775580  0.05264922  0.34277430     0.11000
H182        H  0.77744853  0.01053319  0.39157347     0.16400
H183        H  0.65804840  0.92201791  0.44651156     0.12300
H184        H  0.46754883  0.94234112  0.33300604     0.15200
H185        H  0.58336767  0.04337789  0.28183775     0.14900
C186        C  0.55121094  0.00568741  0.11923811    -0.17900
C187        C  0.59337490  0.00630344  0.09754682    -0.20100
C188        C  0.64063456  0.97324149  0.10164413     0.20600
C189        C  0.64506634  0.93859234  0.12764852    -0.03000
C190        C  0.60216645  0.93732302  0.14927468    -0.06100
C191        C  0.55531164  0.97161247  0.14527482     0.20800
C192        C  0.60684743  0.90275003  0.17526824     0.19000
C193        C  0.65379863  0.86927358  0.17927311    -0.17600
C194        C  0.69639922  0.87077692  0.15795988    -0.19800
C195        C  0.69257591  0.90553770  0.13221554     0.20500
C196        C  0.73526208  0.90739297  0.11085858    -0.32800
C197        C  0.73076764  0.94091672  0.08456055     0.01200
C198        C  0.68336175  0.97390635  0.08014781    -0.24100
C199        C  0.51475355  0.97308486  0.16804118    -0.28700
C200        C  0.52082721  0.94095772  0.19475651     0.06900
C201        C  0.56574137  0.90411130  0.19751034    -0.27400
H202        H  0.51561749  0.03230163  0.11579232     0.11600
H203        H  0.58924714  0.03306899  0.07768657     0.12700
H204        H  0.65799916  0.84259190  0.19916559     0.11800
H205        H  0.73247562  0.84492647  0.16168831     0.11000
H206        H  0.77127306  0.88127571  0.11426926     0.16400
H207        H  0.67956814  0.99976870  0.05989608     0.12300
H208        H  0.48056491  0.00194627  0.16595606     0.15200
H209        H  0.57035548  0.87894381  0.21798747     0.14900
C210        C  0.08981107  0.87623564  0.32123219    -0.17900
C211        C  0.05075686  0.87332906  0.34448361    -0.20100
C212        C  0.05378379  0.91164071  0.36924341     0.20600
C213        C  0.09729739  0.95249009  0.37105883    -0.03000
C214        C  0.13689658  0.95535757  0.34754636    -0.06100
C215        C  0.13260293  0.91742725  0.32238119     0.20800
C216        C  0.17975799  0.99706664  0.34877597     0.19000
C217        C  0.18284409  0.03506161  0.37374001    -0.17600
C218        C  0.14343341  0.03235491  0.39700217    -0.19800
C219        C  0.10022072  0.99147962  0.39582995     0.20500
C220        C  0.05872710  0.99014280  0.41825965    -0.32800
C221        C  0.01408704  0.95089198  0.41574010     0.01200
C222        C  0.01276840  0.91107985  0.39155854    -0.24100
C223        C  0.17013878  0.92229686  0.29834483    -0.28700
C224        C  0.21215313  0.96446625  0.29898207     0.06900
C225        C  0.21758717  0.00099963  0.32457629    -0.27400
H226        H  0.08604003  0.84677615  0.30209285     0.11600
H227        H  0.01756986  0.84168839  0.34282653     0.12700
H228        H  0.21531016  0.06746714  0.37505658     0.11800
H229        H  0.14633112  0.06277104  0.41571809     0.11000
H230        H  0.05939286  0.02149018  0.43655637     0.16400
H231        H  0.97838603  0.88077889  0.38948281     0.12300
H232        H  0.16600288  0.89402005  0.27867228     0.15200
H233        H  0.24965471  0.03387883  0.32497049     0.14900
C234        C  0.17230306  0.88300737  0.12651626    -0.17900
C235        C  0.13667412  0.88042824  0.10077334    -0.20100
C236        C  0.10945592  0.92882470  0.09073144     0.20600
C237        C  0.11887604  0.98059450  0.10651581    -0.03000
C238        C  0.15432387  0.98307251  0.13272293    -0.06100
C239        C  0.18096861  0.93392649  0.14278873     0.20800
C240        C  0.16183965  0.03428609  0.14933526     0.19000
C241        C  0.13495961  0.08277475  0.13913713    -0.17600
C242        C  0.10024284  0.08043079  0.11298801    -0.19800
C243        C  0.09156060  0.02947636  0.09669593     0.20500
C244        C  0.05440388  0.02606205  0.07149277    -0.32800
C245        C  0.04299183  0.97408278  0.05647763     0.01200
C246        C  0.07147103  0.92588637  0.06588851    -0.24100
C247        C  0.21451633  0.93620782  0.16944356    -0.28700
C248        C  0.22082669  0.98660101  0.18642861     0.06900
C249        C  0.19487971  0.03562291  0.17626928    -0.27400
H250        H  0.19236752  0.84492083  0.13401032     0.11600
H251        H  0.12986183  0.84037463  0.08893360     0.12700
H252        H  0.14027848  0.12238776  0.15159238     0.11800
H253        H  0.07939063  0.11828464  0.10581348     0.11000
H254        H  0.03195457  0.06324471  0.06471774     0.16400
H255        H  0.06259987  0.88566683  0.05454776     0.12300
H256        H  0.23417258  0.89835884  0.17768254     0.15200
H257        H  0.19959340  0.07427864  0.18968068     0.14900
C258        C  0.25041478  0.98388667  0.71409967     0.03000
C259        C  0.21832897  0.97751984  0.74028604    -0.13100
C260        C  0.24377914  0.96969200  0.76908538     0.00500
C261        C  0.30205833  0.96784251  0.77143599    -0.11600
C262        C  0.33548376  0.97462019  0.74533650     0.03000
C263        C  0.30856671  0.98339082  0.71670754    -0.11100
H264        H  0.17333678  0.97775951  0.73813390     0.08600
H265        H  0.32062468  0.95887288  0.79358535     0.06100
H266        H  0.33215535  0.98993927  0.69616158     0.06000
C267        C  0.48754999  0.95223712  0.72431813     0.03000
C268        C  0.42939982  0.95535905  0.72209505    -0.13100
C269        C  0.39777878  0.97099739  0.74782248     0.00500
C270        C  0.42645502  0.98321529  0.77591400    -0.11600
C271        C  0.48450567  0.97923490  0.77821916     0.03000
C272        C  0.51422445  0.96329696  0.75246834    -0.11100
H273        H  0.40947258  0.94451673  0.70033047     0.08600
H274        H  0.40449297  0.99736623  0.79586827     0.06100
H275        H  0.55912796  0.96063358  0.75422650     0.06000
C276        C  0.86369799  0.32176416  0.72048642     0.03000
C277        C  0.86312326  0.38115649  0.72034684    -0.13100
C278        C  0.87173426  0.41355363  0.74779275     0.00500
C279        C  0.88195805  0.38353924  0.77517066    -0.11600
C280        C  0.87993496  0.32461678  0.77559940     0.03000
C281        C  0.87188771  0.29413052  0.74834184    -0.11100
H282        H  0.85370511  0.40075380  0.69874262     0.08600
H283        H  0.89001946  0.40464765  0.79688482     0.06100
H284        H  0.87186330  0.24842740  0.74901685     0.06000
C285        C  0.85403712  0.56677380  0.72130235     0.03000
C286        C  0.85293092  0.59590704  0.74924320    -0.13100
C287        C  0.85993176  0.56716400  0.77672340     0.00500
C288        C  0.86558650  0.50845026  0.77631853    -0.11600
C289        C  0.86707479  0.47734183  0.74830450     0.03000
C290        C  0.86256527  0.50838564  0.72080897    -0.11100
H291        H  0.84778766  0.64124473  0.74959048     0.08600
H292        H  0.86807353  0.48843991  0.79837348     0.06100
H293        H  0.86550819  0.48840815  0.69859481     0.06000
O294        O  0.89139891  0.00155702  0.56070548    -0.80200
O295        O  0.81318274  0.93372106  0.93473173    -0.80300
O296        O  0.93934416  0.07433208  0.97512219    -0.80300
O297        O  0.75863116  0.94988094  0.53419087    -0.80200
O298        O  0.86869774  0.02849257  0.95227075    -0.80300
O299        O  0.81870042  0.91604234  0.56765274    -0.80300
O300        O  0.75969898  0.95988358  0.97155145    -0.80200
O301        O  0.85981330  0.04984797  0.52074460    -0.80300
C302        C  0.86772739  0.04469008  0.54944213     1.09500
C303        C  0.76766601  0.95331995  0.94341199     1.09300
C304        C  0.90087146  0.07281983  0.95485659     1.09500
C305        C  0.77169778  0.93725745  0.56142796     1.09400
O306        O  0.88886541  0.84002588  0.53475371    -0.80200
O307        O  0.92037787  0.94511374  0.92190800    -0.80300
O308        O  0.96972268  0.01383199  0.52348791    -0.80200
O309        O  0.80462280  0.84556631  0.96598704    -0.80200
O310        O  0.89468192  0.86120351  0.96127184    -0.80300
O311        O  0.96854002  0.92386238  0.53035409    -0.80200
O312        O  0.79790052  0.83685026  0.52955829    -0.80200
O313        O  0.96970550  0.96684914  0.96375424    -0.80300
Co314      Co  0.89172283  0.92066609  0.54567453     1.51500
Co315      Co  0.88384796  0.94291276  0.95958069     1.51700
Co316      Co  0.91118666  0.00663192  0.99238590     1.51600
Co317      Co  0.78556933  0.90149630  0.99979614     1.51500
O318        O  0.86290893  0.93885651  0.00340867    -1.42200
C319        C  0.84279782  0.81523047  0.53923192     1.09400
C320        C  0.96733598  0.95322039  0.93478150     1.09500
C321        C  0.99310254  0.97090085  0.53402918     1.09400
C322        C  0.85179619  0.83056932  0.95596776     1.09400
C323        C  0.76032861  0.65026076  0.86315443    -0.17900
C324        C  0.75928982  0.68657642  0.88862350    -0.20100
C325        C  0.80813372  0.71438822  0.89934496     0.20600
C326        C  0.85873109  0.70498735  0.88444194    -0.03000
C327        C  0.85977057  0.66845202  0.85864183    -0.06100
C328        C  0.81018692  0.64121427  0.84788896     0.20800
C329        C  0.91006454  0.66026668  0.84317953     0.19000
C330        C  0.95894808  0.68803105  0.85392442    -0.17600
C331        C  0.95789633  0.72421233  0.87949516    -0.19800
C332        C  0.90796020  0.73322116  0.89479236     0.20500
C333        C  0.90602466  0.77138630  0.91958493    -0.32800
C334        C  0.85533303  0.78249929  0.93397403     0.01200
C335        C  0.80681155  0.75282591  0.92404413    -0.24100
C336        C  0.81106650  0.60650910  0.82164348    -0.28700
C337        C  0.86068998  0.59913861  0.80592237     0.06900
C338        C  0.91017507  0.62557033  0.81684814    -0.27400
H339        H  0.72192750  0.62976877  0.85515169     0.11600
H340        H  0.72007765  0.69344133  0.89972846     0.12700
H341        H  0.99787462  0.68231390  0.84232147     0.11800
H342        H  0.99603157  0.74578864  0.88705050     0.11000
H343        H  0.94367880  0.79423727  0.92679185     0.16400
H344        H  0.76747909  0.76133315  0.93468837     0.12300
H345        H  0.77296488  0.58633453  0.81290971     0.15200
H346        H  0.94832703  0.61998213  0.80444191     0.14900
C347        C  0.93943204  0.67712039  0.60332702    -0.17900
C348        C  0.94116217  0.64316314  0.62928909    -0.20100
C349        C  0.89399264  0.63623266  0.64735031     0.20600
C350        C  0.84434417  0.66354710  0.63915080    -0.03000
C351        C  0.84237554  0.69718745  0.61266295    -0.06100
C352        C  0.89032990  0.70427059  0.59482361     0.20800
C353        C  0.79295489  0.72478930  0.60446892     0.19000
C354        C  0.74599951  0.71866703  0.62289624    -0.17600
C355        C  0.74807908  0.68566888  0.64932445    -0.19800
C356        C  0.79708922  0.65805918  0.65769721     0.20500
C357        C  0.80014560  0.62577107  0.68448212    -0.32800
C358        C  0.84951633  0.59833134  0.69247728     0.01200
C359        C  0.89596499  0.60322978  0.67375066    -0.24100
C360        C  0.88903164  0.73988164  0.56939147    -0.28700
C361        C  0.84039917  0.76849642  0.56140246     0.06900
C362        C  0.79206523  0.75964434  0.57865141    -0.27400
H363        H  0.97665697  0.68242647  0.58998089     0.11600
H364        H  0.97963774  0.62276003  0.63543282     0.12700
H365        H  0.70786967  0.74001175  0.61708903     0.11800
H366        H  0.71147692  0.68203448  0.66331277     0.11000
H367        H  0.76442775  0.62200407  0.69916188     0.16400
H368        H  0.93411225  0.58250513  0.68028671     0.12300
H369        H  0.92655143  0.74705647  0.55648829     0.15200
H370        H  0.75470410  0.78258055  0.57315549     0.14900
C371        C  0.98190386  0.22718742  0.89464003    -0.17900
C372        C  0.97960359  0.26166232  0.86883025    -0.20100
C373        C  0.93102985  0.26314130  0.85051041     0.20600
C374        C  0.88375123  0.23070744  0.85876578    -0.03300
C375        C  0.88597717  0.19623483  0.88488380    -0.06100
C376        C  0.93560355  0.19378642  0.90260290     0.20800
C377        C  0.83917235  0.16274325  0.89262384     0.19000
C378        C  0.78993219  0.16572371  0.87499313    -0.17600
C379        C  0.78782411  0.19952393  0.84896400    -0.19800
C380        C  0.83476725  0.23135276  0.84040603     0.20500
C381        C  0.83400055  0.26288127  0.81347637    -0.32800
C382        C  0.88121333  0.29427596  0.80487919     0.01200
C383        C  0.92924013  0.29531338  0.82369072    -0.24100
C384        C  0.93882978  0.15611047  0.92710392    -0.28700
C385        C  0.89343291  0.12017974  0.93367048     0.06900
C386        C  0.84317998  0.12507448  0.91703447    -0.27400
H387        H  0.02027557  0.22582186  0.90804048     0.11600
H388        H  0.01617865  0.28635740  0.86286724     0.12700
H389        H  0.75342208  0.14098395  0.88098821     0.11800
H390        H  0.74975315  0.20007481  0.83525614     0.11000
H391        H  0.79685470  0.26272760  0.79893936     0.16400
H392        H  0.96552866  0.31970764  0.81690425     0.12300
H393        H  0.97774515  0.15233096  0.93982942     0.15200
H394        H  0.80786708  0.09796865  0.92233698     0.14900
C395        C  0.90690634  0.27613928  0.61228681    -0.17900
C396        C  0.90607463  0.23738907  0.58779115    -0.20100
C397        C  0.87680658  0.18572911  0.58990066     0.20600
C398        C  0.84637589  0.17386902  0.61651026    -0.03000
C399        C  0.84659682  0.21328354  0.64101843    -0.06100
C400        C  0.87799283  0.26416324  0.63919275     0.20800
C401        C  0.81715498  0.20070696  0.66781823     0.19000
C402        C  0.78654756  0.14979662  0.66961771    -0.17600
C403        C  0.78710820  0.11035285  0.64558400    -0.19800
C404        C  0.81779130  0.12152007  0.61924441     0.20500
C405        C  0.82261365  0.08025717  0.59627689    -0.32800
C406        C  0.85436004  0.09120443  0.57030476     0.01200
C407        C  0.87966985  0.14456584  0.56661440    -0.24100
C408        C  0.88159007  0.30100124  0.66471864    -0.28700
C409        C  0.85413512  0.28746341  0.69197976     0.06900
C410        C  0.82049409  0.23816636  0.69284272    -0.27400
H411        H  0.93104041  0.31503332  0.61040439     0.11600
H412        H  0.92962118  0.24715628  0.56752904     0.12700
H413        H  0.76349898  0.13974046  0.69001621     0.11800
H414        H  0.76454155  0.07058930  0.64787906     0.11000
H415        H  0.80336019  0.03893406  0.59907165     0.16400
H416        H  0.90472834  0.15251982  0.54665345     0.12300
H417        H  0.90768128  0.33879689  0.66385596     0.15200
H418        H  0.79813812  0.22803299  0.71348124     0.14900
C419        C  0.53289194  0.92792199  0.88452726    -0.17900
C420        C  0.57416583  0.92296474  0.90738648    -0.20100
C421        C  0.62660189  0.94919514  0.90411078     0.20600
C422        C  0.63703917  0.98230180  0.87808764    -0.03000
C423        C  0.59491034  0.98863154  0.85551163    -0.06100
C424        C  0.54306273  0.96004232  0.85829476     0.20800
C425        C  0.60567576  0.02140193  0.82943413     0.19000
C426        C  0.65777228  0.04827477  0.82632167    -0.17600
C427        C  0.69999371  0.04064198  0.84822690    -0.19800
C428        C  0.69027423  0.00728508  0.87399313     0.20500
C429        C  0.73317161  0.99732878  0.89534047    -0.32800
C430        C  0.72275891  0.96477496  0.92129270     0.01200
C431        C  0.66931435  0.94171217  0.92593003    -0.24100
C432        C  0.50387836  0.96129530  0.83394170    -0.28700
C433        C  0.51624815  0.99092842  0.80709875     0.06900
C434        C  0.56563114  0.02360025  0.80587978    -0.27400
H435        H  0.49339817  0.90577664  0.88709778     0.11600
H436        H  0.56557734  0.89735858  0.92724201     0.12700
H437        H  0.66656581  0.07344124  0.80632604     0.11800
H438        H  0.74055109  0.05998656  0.84471071     0.11000
H439        H  0.77452349  0.01494976  0.89188474     0.16400
H440        H  0.66171487  0.91611882  0.94594339     0.12300
H441        H  0.46588090  0.93595683  0.83489812     0.15200
H442        H  0.57482570  0.04704177  0.78529833     0.14900
C443        C  0.55281819  0.00874798  0.62245738    -0.17900
C444        C  0.59449410  0.00934938  0.60049671    -0.20100
C445        C  0.64120370  0.97530706  0.60394775     0.20600
C446        C  0.64579584  0.94006647  0.62971767    -0.03000
C447        C  0.60349891  0.93902068  0.65169081    -0.06100
C448        C  0.55695316  0.97385553  0.64816085     0.20800
C449        C  0.60830270  0.90384155  0.67744910     0.19000
C450        C  0.65483206  0.86959275  0.68087856    -0.17600
C451        C  0.69672168  0.87065098  0.65913196    -0.19800
C452        C  0.69272039  0.90594507  0.63360801     0.20500
C453        C  0.73456744  0.90718472  0.61175527    -0.32800
C454        C  0.72984500  0.94126749  0.58568120     0.01200
C455        C  0.68312932  0.97544592  0.58198112    -0.24100
C456        C  0.51648408  0.97467869  0.67094086    -0.28700
C457        C  0.52239356  0.94156931  0.69729484     0.06900
C458        C  0.56748896  0.90495375  0.69987613    -0.27400
H459        H  0.51748534  0.03586972  0.61942958     0.11600
H460        H  0.59030009  0.03665159  0.58086313     0.12700
H461        H  0.65910828  0.84240319  0.70055747     0.11800
H462        H  0.73234063  0.84393987  0.66231453     0.11000
H463        H  0.77005758  0.88014249  0.61459100     0.16400
H464        H  0.67924831  0.00178853  0.56192221     0.12300
H465        H  0.48221599  0.00349379  0.66906878     0.15200
H466        H  0.57204380  0.87919005  0.72013118     0.14900
C467        C  0.08748761  0.87277327  0.81976801    -0.17900
C468        C  0.05007283  0.86894750  0.84381712    -0.20100
C469        C  0.05505617  0.90604405  0.86907691     0.20600
C470        C  0.09951991  0.94580680  0.87083136    -0.03000
C471        C  0.13750494  0.94951701  0.84655452    -0.06100
C472        C  0.13066366  0.91356171  0.82065064     0.20800
C473        C  0.18110355  0.99038898  0.84772967     0.19000
C474        C  0.18696547  0.02627778  0.87349365    -0.17600
C475        C  0.14904946  0.02287918  0.89745618    -0.19800
C476        C  0.10464486  0.98337101  0.89618906     0.20500
C477        C  0.06371526  0.98262388  0.91892156    -0.32800
C478        C  0.01742773  0.94548955  0.91610806     0.01200
C479        C  0.01463593  0.90600827  0.89174744    -0.24100
C480        C  0.16619164  0.91991105  0.79575177    -0.28700
C481        C  0.20898416  0.96125320  0.79645011     0.06900
C482        C  0.21701379  0.99558372  0.82277218    -0.27400
H483        H  0.08197092  0.84454984  0.80017867     0.11600
H484        H  0.01630911  0.83793528  0.84226966     0.12700
H485        H  0.22024754  0.05781615  0.87483139     0.11800
H486        H  0.15379652  0.05200031  0.91669671     0.11000
H487        H  0.06579973  0.01340412  0.93749974     0.16400
H488        H  0.97918214  0.87704529  0.88957280     0.12300
H489        H  0.16033183  0.89301861  0.77561760     0.15200
H490        H  0.24993897  0.02758422  0.82330980     0.14900
C491        C  0.17753832  0.88581001  0.62140386    -0.17900
C492        C  0.14125034  0.88373852  0.59592170    -0.20100
C493        C  0.11215462  0.93178516  0.58709284     0.20600
C494        C  0.12087047  0.98290457  0.60359896    -0.03000
C495        C  0.15691035  0.98480723  0.62958778    -0.06100
C496        C  0.18493533  0.93581428  0.63866446     0.20800
C497        C  0.16318292  0.03506215  0.64716025     0.19000
C498        C  0.13514720  0.08348510  0.63785524    -0.17600
C499        C  0.09993716  0.08177008  0.61189292    -0.19800
C500        C  0.09185624  0.03149201  0.59491484     0.20500
C501        C  0.05334235  0.02825949  0.57032226    -0.32800
C502        C  0.04217074  0.97665017  0.55489469     0.01200
C503        C  0.07272109  0.92894783  0.56292978    -0.24100
C504        C  0.21810369  0.93709265  0.66550183    -0.28700
C505        C  0.22246584  0.98620885  0.68372350     0.06900
C506        C  0.19571268  0.03531574  0.67429661    -0.27400
H507        H  0.19878508  0.84787685  0.62806438     0.11600
H508        H  0.13514836  0.84422831  0.58345371     0.12700
H509        H  0.13965426  0.12244007  0.65098537     0.11800
H510        H  0.07793136  0.11943203  0.60553752     0.11000
H511        H  0.02945845  0.06506367  0.56452749     0.16400
H512        H  0.06419547  0.88906055  0.55117148     0.12300
H513        H  0.23851332  0.89918677  0.67305568     0.15200
H514        H  0.19908891  0.07306521  0.68853487     0.14900
loop_ 
_geom_bond_atom_site_label_1 
_geom_bond_atom_site_label_2 
_geom_bond_distance 
_geom_bond_site_symmetry_2 
_ccdc_geom_bond_type 
C1            C2   1.395       .  A
C1            C6   1.399       .  A
C1          C248   1.472       .  S
C2            C3   1.400       .  A
C2            H7   1.085       .  S
C3            C4   1.408       .  A
C3          C224   1.485       .  S
C4            C5   1.419       .  A
C4            H8   1.081       .  S
C5            C6   1.413       .  A
C5           C12   1.505       .  S
C6            H9   1.081       .  S
C10          C11   1.405       .  A
C10          C15   1.393       .  A
C10         C200   1.484       .  S
C11          C12   1.421       .  A
C11          H16   1.080       .  S
C12          C13   1.416       .  A
C13          C14   1.403       .  A
C13          H17   1.081   1_565  S
C14          C15   1.395       .  A
C14         C176   1.479       .  S
C15          H18   1.084       .  S
C19          C20   1.410       .  A
C19          C24   1.399       .  A
C19         C152   1.493       .  S
C20          C21   1.425       .  A
C20          H25   1.077       .  S
C21          C22   1.416       .  A
C21          C32   1.518       .  S
C22          C23   1.398       .  A
C22          H26   1.078       .  S
C23          C24   1.394       .  A
C23         C125   1.473       .  S
C24          H27   1.084       .  S
C28          C29   1.398       .  A
C28          C33   1.404       .  A
C28         C101   1.477       .  S
C29          C30   1.395       .  A
C29          H34   1.084       .  S
C30          C31   1.404       .  A
C30          C80   1.478       .  S
C31          C32   1.422       .  A
C31          H35   1.078       .  S
C32          C33   1.416       .  A
C33          H36   1.078       .  S
O37          C45   1.279       .  A
O37         Co57   2.022   1_545  S
O38          C46   1.260       .  A
O38         Co58   1.993       .  S
O39          C47   1.265       .  A
O39         Co59   1.894       .  S
O40          C48   1.263       .  A
O40        Co317   1.968   1_554  S
O41          C47   1.295       .  A
O41         Co58   2.102   1_545  S
O42          C48   1.273       .  A
O42         Co57   2.021       .  S
O43          C46   1.255       .  A
O43         Co60   1.967       .  S
O44          C45   1.272       .  A
O44        Co316   1.977   1_554  S
C45         C149   1.473       .  S
C46         C173   1.461       .  S
C47         C128   1.473       .  S
C48         C197   1.479       .  S
O49          C62   1.262       .  A
O49         Co57   1.968       .  S
O50          C63   1.260       .  A
O50         Co58   1.877       .  S
O51          C64   1.260   1_545  A
O51        Co316   1.998   1_554  S
O52          C65   1.280       .  A
O52         Co60   2.038       .  S
O53          C65   1.265       .  A
O53         Co58   1.963       .  S
O54          C64   1.257       .  A
O54         Co57   1.976       .  S
O55          C62   1.271       .  A
O55        Co317   2.017   1_554  S
O56          C63   1.301       .  A
O56         Co59   2.129   1_565  S
Co57        O318   2.021       .  S
Co58         O61   1.985       .  S
Co59        O301   1.970       .  S
Co59        O308   1.998       .  S
Co59         O61   2.027   1_545  S
Co60        O297   1.971       .  S
Co60        O312   2.019       .  S
Co60         O61   2.046       .  S
O61        Co314   2.017       .  S
C62         C104   1.478       .  S
C63         C221   1.480   1_655  S
C64         C245   1.479   1_655  S
C65          C77   1.488       .  S
C66          C67   1.400       .  A
C66          C71   1.403       .  A
C66          H82   1.084       .  S
C67          C68   1.404       .  A
C67          H83   1.083       .  S
C68          C78   1.406       .  A
C68          C69   1.412       .  A
C69          C75   1.411       .  A
C69          C70   1.414       .  A
C70          C72   1.413       .  A
C70          C71   1.413       .  A
C71          C79   1.405       .  A
C72          C81   1.406       .  A
C72          C73   1.404       .  A
C73          C74   1.400       .  A
C73          H84   1.083       .  S
C74          C75   1.405       .  A
C74          H85   1.084       .  S
C75          C76   1.404       .  A
C76          C77   1.411       .  A
C76          H86   1.084       .  S
C77          C78   1.408       .  A
C78          H87   1.084       .  S
C79          C80   1.403       .  A
C79          H88   1.084       .  S
C80          C81   1.405       .  A
C81          H89   1.084       .  S
C90          C91   1.398       .  A
C90          C95   1.403       .  A
C90         H106   1.083       .  S
C91          C92   1.403       .  A
C91         H107   1.084       .  S
C92         C102   1.402       .  A
C92          C93   1.412       .  A
C93          C99   1.412       .  A
C93          C94   1.412       .  A
C94          C96   1.411       .  A
C94          C95   1.413       .  A
C95         C103   1.404       .  A
C96         C105   1.402       .  A
C96          C97   1.404       .  A
C97          C98   1.399       .  A
C97         H108   1.084       .  S
C98          C99   1.404       .  A
C98         H109   1.084       .  S
C99         C100   1.403       .  A
C100        C101   1.406       .  A
C100        H110   1.084       .  S
C101        C102   1.403       .  A
C102        H111   1.084       .  S
C103        C104   1.404       .  A
C103        H112   1.084       .  S
C104        C105   1.409       .  A
C105        H113   1.084       .  S
C114        C115   1.400       .  A
C114        C119   1.404       .  A
C114        H130   1.084   1_655  S
C115        C116   1.403       .  A
C115        H131   1.083   1_655  S
C116        C126   1.405       .  A
C116        C117   1.414       .  A
C117        C123   1.411       .  A
C117        C118   1.410       .  A
C118        C120   1.412       .  A
C118        C119   1.411       .  A
C119        C127   1.402       .  A
C120        C129   1.400       .  A
C120        C121   1.402       .  A
C121        C122   1.397       .  A
C121        H132   1.083       .  S
C122        C123   1.403       .  A
C122        H133   1.084       .  S
C123        C124   1.398       .  A
C124        C125   1.403       .  A
C124        H134   1.085       .  S
C125        C126   1.404       .  A
C126        H135   1.084       .  S
C127        C128   1.406       .  A
C127        H136   1.084       .  S
C128        C129   1.404       .  A
C129        H137   1.084       .  S
C138        C139   1.402       .  A
C138        C143   1.405       .  A
C138        H154   1.083       .  S
C139        C140   1.404       .  A
C139        H155   1.084       .  S
C140        C150   1.407       .  A
C140        C141   1.412       .  A
C141        C147   1.412       .  A
C141        C142   1.414       .  A
C142        C144   1.410       .  A
C142        C143   1.412       .  A
C143        C151   1.408       .  A
C144        C153   1.402       .  A
C144        C145   1.404       .  A
C145        C146   1.398       .  A
C145        H156   1.084       .  S
C146        C147   1.403       .  A
C146        H157   1.084       .  S
C147        C148   1.402       .  A
C148        C149   1.403       .  A
C148        H158   1.084       .  S
C149        C150   1.405       .  A
C150        H159   1.084       .  S
C151        C152   1.409       .  A
C151        H160   1.084       .  S
C152        C153   1.409       .  A
C153        H161   1.084       .  S
C162        C163   1.399       .  A
C162        C167   1.403       .  A
C162        H178   1.084       .  S
C163        C164   1.403       .  A
C163        H179   1.084       .  S
C164        C174   1.399       .  A
C164        C165   1.411       .  A
C165        C171   1.414   1_565  A
C165        C166   1.408       .  A
C166        C168   1.409   1_565  A
C166        C167   1.414       .  A
C167        C175   1.404       .  A
C168        C177   1.396       .  A
C168        C169   1.403       .  A
C169        C170   1.396       .  A
C169        H180   1.084       .  S
C170        C171   1.402       .  A
C170        H181   1.084       .  S
C171        C172   1.399   1_545  A
C172        C173   1.401       .  A
C172        H182   1.084   1_565  S
C173        C174   1.403       .  A
C174        H183   1.085       .  S
C175        C176   1.405       .  A
C175        H184   1.084       .  S
C176        C177   1.407   1_565  A
C177        H185   1.085       .  S
C186        C187   1.401       .  A
C186        C191   1.404   1_545  A
C186        H202   1.083       .  S
C187        C188   1.404   1_545  A
C187        H203   1.083       .  S
C188        C198   1.405       .  A
C188        C189   1.411       .  A
C189        C195   1.412       .  A
C189        C190   1.412       .  A
C190        C192   1.410       .  A
C190        C191   1.413       .  A
C191        C199   1.406       .  A
C192        C201   1.400       .  A
C192        C193   1.403       .  A
C193        C194   1.397       .  A
C193        H204   1.084       .  S
C194        C195   1.403       .  A
C194        H205   1.084       .  S
C195        C196   1.400       .  A
C196        C197   1.406       .  A
C196        H206   1.084       .  S
C197        C198   1.408       .  A
C198        H207   1.084       .  S
C199        C200   1.406       .  A
C199        H208   1.084   1_565  S
C200        C201   1.408       .  A
C201        H209   1.085       .  S
C210        C211   1.397       .  A
C210        C215   1.403       .  A
C210        H226   1.084       .  S
C211        C212   1.403       .  A
C211        H227   1.084       .  S
C212        C222   1.400       .  A
C212        C213   1.411       .  A
C213        C219   1.414       .  A
C213        C214   1.415       .  A
C214        C216   1.412       .  A
C214        C215   1.412       .  A
C215        C223   1.401       .  A
C216        C225   1.410   1_565  A
C216        C217   1.405   1_565  A
C217        C218   1.403       .  A
C217        H228   1.083       .  S
C218        C219   1.405   1_545  A
C218        H229   1.083       .  S
C219        C220   1.411       .  A
C220        C221   1.407       .  A
C220        H230   1.084   1_565  S
C221        C222   1.407       .  A
C222        H231   1.085   1_455  S
C223        C224   1.405       .  A
C223        H232   1.085       .  S
C224        C225   1.408   1_565  A
C225        H233   1.084       .  S
C234        C235   1.398       .  A
C234        C239   1.403       .  A
C234        H250   1.084       .  S
C235        C236   1.403       .  A
C235        H251   1.084       .  S
C236        C246   1.403       .  A
C236        C237   1.412       .  A
C237        C243   1.411   1_565  A
C237        C238   1.412       .  A
C238        C240   1.413   1_565  A
C238        C239   1.412       .  A
C239        C247   1.401       .  A
C240        C249   1.404       .  A
C240        C241   1.403       .  A
C241        C242   1.400       .  A
C241        H252   1.084       .  S
C242        C243   1.404       .  A
C242        H253   1.084       .  S
C243        C244   1.403       .  A
C244        C245   1.408   1_545  A
C244        H254   1.084       .  S
C245        C246   1.406       .  A
C246        H255   1.084       .  S
C247        C248   1.403       .  A
C247        H256   1.085       .  S
C248        C249   1.403   1_565  A
C249        H257   1.084       .  S
C258        C259   1.399       .  A
C258        C263   1.401       .  A
C258        C505   1.475       .  S
C259        C260   1.402       .  A
C259        H264   1.084       .  S
C260        C261   1.405       .  A
C260        C481   1.484       .  S
C261        C262   1.415       .  A
C261        H265   1.081       .  S
C262        C263   1.414       .  A
C262        C269   1.504       .  S
C263        H266   1.081       .  S
C267        C268   1.403       .  A
C267        C272   1.393       .  A
C267        C457   1.482       .  S
C268        C269   1.419       .  A
C268        H273   1.081       .  S
C269        C270   1.418       .  A
C270        C271   1.403       .  A
C270        H274   1.081       .  S
C271        C272   1.396       .  A
C271        C433   1.480       .  S
C272        H275   1.084       .  S
C276        C277   1.408       .  A
C276        C281   1.399       .  A
C276        C409   1.489       .  S
C277        C278   1.424       .  A
C277        H282   1.077       .  S
C278        C279   1.417       .  A
C278        C289   1.519       .  S
C279        C280   1.397       .  A
C279        H283   1.078       .  S
C280        C281   1.392       .  A
C280        C382   1.473       .  S
C281        H284   1.084       .  S
C285        C286   1.395       .  A
C285        C290   1.404       .  A
C285        C358   1.473       .  S
C286        C287   1.394       .  A
C286        H291   1.085       .  S
C287        C288   1.401       .  A
C287        C337   1.474       .  S
C288        C289   1.422       .  A
C288        H292   1.078       .  S
C289        C290   1.417       .  A
C290        H293   1.078       .  S
O294        C302   1.279       .  A
O294       Co314   2.020   1_545  S
O295        C303   1.262       .  A
O295       Co315   2.003       .  S
O296        C304   1.266       .  A
O296       Co316   1.898       .  S
O297        C305   1.263       .  A
O298        C304   1.294       .  A
O298       Co315   2.096   1_545  S
O299        C305   1.273       .  A
O299       Co314   2.019       .  S
O300        C303   1.254       .  A
O300       Co317   1.966       .  S
O301        C302   1.270       .  A
C302        C406   1.467       .  S
C303        C430   1.465       .  S
C304        C385   1.473       .  S
C305        C454   1.478       .  S
O306        C319   1.262       .  A
O306       Co314   1.964       .  S
O307        C320   1.261       .  A
O307       Co315   1.879       .  S
O308        C321   1.260   1_545  A
O309        C322   1.280       .  A
O309       Co317   2.038       .  S
O310        C322   1.264       .  A
O310       Co315   1.962       .  S
O311        C321   1.258       .  A
O311       Co314   1.977       .  S
O312        C319   1.272       .  A
O313        C320   1.301       .  A
O313       Co316   2.129   1_565  S
Co315       O318   1.989   1_556  S
Co316       O318   2.029   1_546  S
Co317       O318   2.045   1_556  S
C319        C361   1.479       .  S
C320        C478   1.481   1_655  S
C321        C502   1.478   1_655  S
C322        C334   1.486       .  S
C323        C324   1.399       .  A
C323        C328   1.403       .  A
C323        H339   1.084       .  S
C324        C325   1.404       .  A
C324        H340   1.083       .  S
C325        C335   1.405       .  A
C325        C326   1.412       .  A
C326        C332   1.411       .  A
C326        C327   1.413       .  A
C327        C329   1.413       .  A
C327        C328   1.413       .  A
C328        C336   1.403       .  A
C329        C338   1.405       .  A
C329        C330   1.404       .  A
C330        C331   1.400       .  A
C330        H341   1.083       .  S
C331        C332   1.405       .  A
C331        H342   1.084       .  S
C332        C333   1.404       .  A
C333        C334   1.411       .  A
C333        H343   1.084       .  S
C334        C335   1.407       .  A
C335        H344   1.084       .  S
C336        C337   1.402       .  A
C336        H345   1.084       .  S
C337        C338   1.405       .  A
C338        H346   1.084       .  S
C347        C348   1.397       .  A
C347        C352   1.402       .  A
C347        H363   1.083       .  S
C348        C349   1.402       .  A
C348        H364   1.084       .  S
C349        C359   1.400       .  A
C349        C350   1.412       .  A
C350        C356   1.413       .  A
C350        C351   1.411       .  A
C351        C353   1.411       .  A
C351        C352   1.412       .  A
C352        C360   1.401       .  A
C353        C362   1.404       .  A
C353        C354   1.405       .  A
C354        C355   1.401       .  A
C354        H365   1.084       .  S
C355        C356   1.404       .  A
C355        H366   1.083       .  S
C356        C357   1.405       .  A
C357        C358   1.406       .  A
C357        H367   1.084       .  S
C358        C359   1.401       .  A
C359        H368   1.085       .  S
C360        C361   1.405       .  A
C360        H369   1.084       .  S
C361        C362   1.410       .  A
C362        H370   1.084       .  S
C371        C372   1.399       .  A
C371        C376   1.404       .  A
C371        H387   1.084   1_655  S
C372        C373   1.403       .  A
C372        H388   1.083   1_655  S
C373        C383   1.404       .  A
C373        C374   1.413       .  A
C374        C380   1.411       .  A
C374        C375   1.410       .  A
C375        C377   1.412       .  A
C375        C376   1.411       .  A
C376        C384   1.402       .  A
C377        C386   1.400       .  A
C377        C378   1.402       .  A
C378        C379   1.397       .  A
C378        H389   1.083       .  S
C379        C380   1.403       .  A
C379        H390   1.084       .  S
C380        C381   1.399       .  A
C381        C382   1.403       .  A
C381        H391   1.085       .  S
C382        C383   1.403       .  A
C383        H392   1.084       .  S
C384        C385   1.406       .  A
C384        H393   1.084       .  S
C385        C386   1.405       .  A
C386        H394   1.084       .  S
C395        C396   1.401       .  A
C395        C400   1.404       .  A
C395        H411   1.083       .  S
C396        C397   1.404       .  A
C396        H412   1.084       .  S
C397        C407   1.404       .  A
C397        C398   1.412       .  A
C398        C404   1.413       .  A
C398        C399   1.412       .  A
C399        C401   1.410       .  A
C399        C400   1.413       .  A
C400        C408   1.407       .  A
C401        C410   1.399       .  A
C401        C402   1.404       .  A
C402        C403   1.397       .  A
C402        H413   1.084       .  S
C403        C404   1.402       .  A
C403        H414   1.084       .  S
C404        C405   1.401       .  A
C405        C406   1.402       .  A
C405        H415   1.083       .  S
C406        C407   1.404       .  A
C407        H416   1.085       .  S
C408        C409   1.408       .  A
C408        H417   1.084       .  S
C409        C410   1.408       .  A
C410        H418   1.084       .  S
C419        C420   1.400       .  A
C419        C424   1.404       .  A
C419        H435   1.083       .  S
C420        C421   1.404       .  A
C420        H436   1.084       .  S
C421        C431   1.401       .  A
C421        C422   1.410       .  A
C422        C428   1.414   1_565  A
C422        C423   1.410       .  A
C423        C425   1.409   1_565  A
C423        C424   1.414       .  A
C424        C432   1.407       .  A
C425        C434   1.396       .  A
C425        C426   1.403       .  A
C426        C427   1.396       .  A
C426        H437   1.084       .  S
C427        C428   1.402       .  A
C427        H438   1.083       .  S
C428        C429   1.401   1_545  A
C429        C430   1.400       .  A
C429        H439   1.084   1_565  S
C430        C431   1.405       .  A
C431        H440   1.085       .  S
C432        C433   1.405       .  A
C432        H441   1.084       .  S
C433        C434   1.406   1_565  A
C434        H442   1.085       .  S
C443        C444   1.400       .  A
C443        C448   1.404   1_545  A
C443        H459   1.084       .  S
C444        C445   1.404   1_545  A
C444        H460   1.083       .  S
C445        C455   1.405       .  A
C445        C446   1.412       .  A
C446        C452   1.411       .  A
C446        C447   1.412       .  A
C447        C449   1.411       .  A
C447        C448   1.412       .  A
C448        C456   1.405       .  A
C449        C458   1.400       .  A
C449        C450   1.403       .  A
C450        C451   1.397       .  A
C450        H461   1.084       .  S
C451        C452   1.403       .  A
C451        H462   1.084       .  S
C452        C453   1.400       .  A
C453        C454   1.406       .  A
C453        H463   1.085       .  S
C454        C455   1.407       .  A
C455        H464   1.084   1_565  S
C456        C457   1.405       .  A
C456        H465   1.084   1_565  S
C457        C458   1.407       .  A
C458        H466   1.085       .  S
C467        C468   1.398       .  A
C467        C472   1.403       .  A
C467        H483   1.084       .  S
C468        C469   1.404       .  A
C468        H484   1.084       .  S
C469        C479   1.400       .  A
C469        C470   1.410       .  A
C470        C476   1.414       .  A
C470        C471   1.414       .  A
C471        C473   1.412       .  A
C471        C472   1.412       .  A
C472        C480   1.403       .  A
C473        C482   1.408       .  A
C473        C474   1.405   1_565  A
C474        C475   1.403       .  A
C474        H485   1.083       .  S
C475        C476   1.405   1_545  A
C475        H486   1.083       .  S
C476        C477   1.411       .  A
C477        C478   1.406       .  A
C477        H487   1.084   1_565  S
C478        C479   1.408       .  A
C479        H488   1.085   1_455  S
C480        C481   1.405       .  A
C480        H489   1.084       .  S
C481        C482   1.408       .  A
C482        H490   1.084   1_565  S
C491        C492   1.399       .  A
C491        C496   1.403       .  A
C491        H507   1.084       .  S
C492        C493   1.403       .  A
C492        H508   1.084       .  S
C493        C503   1.403       .  A
C493        C494   1.412       .  A
C494        C500   1.411   1_565  A
C494        C495   1.413       .  A
C495        C497   1.413   1_565  A
C495        C496   1.412       .  A
C496        C504   1.403       .  A
C497        C506   1.405       .  A
C497        C498   1.404       .  A
C498        C499   1.400       .  A
C498        H509   1.084       .  S
C499        C500   1.404       .  A
C499        H510   1.084       .  S
C500        C501   1.403       .  A
C501        C502   1.408   1_545  A
C501        H511   1.084       .  S
C502        C503   1.406       .  A
C503        H512   1.084       .  S
C504        C505   1.403       .  A
C504        H513   1.085       .  S
C505        C506   1.404   1_565  A
C506        H514   1.084       .  S
