geometry optimzed in LAMMPS
_audit_creation_date              2020-11-30 
_audit_creation_method            'lammps2cif' 
_symmetry_space_group_name_H-M    'P1' 
_symmetry_Int_Tables_number       1 
_symmetry_cell_setting            triclinic 
loop_ 
_symmetry_equiv_pos_as_xyz 
  x,y,z 
_cell_length_a                    41.4032429 
_cell_length_b                    41.49668089596104 
_cell_length_c                    29.181939516511292 
_cell_angle_alpha                 80.39125086775184 
_cell_angle_beta                  80.5829992100843 
_cell_angle_gamma                 87.02223783555837 
loop_ 
_atom_site_label 
_atom_site_type_symbol 
_atom_site_fract_x 
_atom_site_fract_y 
_atom_site_fract_z 
_atom_site_charge 
N1          N  0.15057036  0.99201560  0.24220026    -0.03100
C2          C  0.14962319  0.99407096  0.19566107    -0.00500
C3          C  0.18027452  0.49979419  0.16975495    -0.23400
C4          C  0.20093582  0.50189017  0.20138025    -0.23600
C5          C  0.18237378  0.49680641  0.24601312    -0.00600
H6          H  0.18666321  0.50335996  0.13181439     0.13100
H7          H  0.22635100  0.50818099  0.19163232     0.13200
N8          N  0.22747169  0.49431624  0.29684288    -0.03100
C9          C  0.22808954  0.49806796  0.34195219    -0.00500
C10         C  0.19691249  0.50366474  0.36457824    -0.23400
C11         C  0.17636183  0.50427772  0.33207326    -0.23600
C12         C  0.19541230  0.49808416  0.29053810    -0.00600
H13         H  0.18982782  0.50733258  0.40074619     0.13100
H14         H  0.15049887  0.50990737  0.33873799     0.13200
N15         N  0.42919548  0.19923330  0.24603624    -0.03100
C16         C  0.42876775  0.19885282  0.19969072    -0.00500
C17         C  0.42191751  0.22973820  0.17709927    -0.23400
C18         C  0.41826994  0.24995592  0.21028461    -0.23600
C19         C  0.42354066  0.23104082  0.25244079    -0.00600
H20         H  0.41858422  0.23659662  0.14069568     0.13100
H21         H  0.41095217  0.27541428  0.20382027     0.13200
N22         N  0.42619990  0.27600000  0.30142560    -0.03100
C23         C  0.42309451  0.27723809  0.34809305    -0.00500
C24         C  0.41724923  0.24650965  0.37387318    -0.23400
C25         C  0.41627235  0.22571202  0.34214287    -0.23600
C26         C  0.42228509  0.24414445  0.29749571    -0.00600
H27         H  0.41405926  0.23981525  0.41176539     0.13100
H28         H  0.41088360  0.20011995  0.35178945     0.13200
C29         C  0.03684204  0.48841653  0.10428149     0.42800
N30         N  0.00778963  0.47329482  0.05726088     0.01700
C31         C  0.40538263  0.07394717  0.42633350    -0.06200
H32         H  0.37923637  0.07454343  0.10555910     0.07200
C33         C  0.35432982  0.45599019  0.13487175    -0.06500
Co34       Co  0.47767244  0.03119308  0.00183406     0.74200
N35         N  0.41770441  0.05277622  0.06117525    -0.25700
Co36       Co  0.39339287  0.02684420  0.02336266     0.74100
C37         C  0.33992332  0.48523940  0.15328056     0.42900
N38         N  0.42804723  0.41745391  0.08970575     0.01300
N39         N  0.37022882  0.99945851  0.08603192     0.01400
N40         N  0.46050971  0.07620271  0.41411279    -0.46600
H41         H  0.02336612  0.04272648  0.08133949     0.07500
N42         N  0.44977217  0.05544811  0.05277908     0.01700
N43         N  0.36997378  0.99996109  0.48572457     0.01400
C44         C  0.33968695  0.48593147  0.43968368     0.43000
N45         N  0.46030206  0.41862942  0.08088221    -0.25200
C46         C  0.02428356  0.01908996  0.41129925    -0.06100
N47         N  0.02741897  0.46210565  0.08834494    -0.46300
N48         N  0.35098674  0.01178571  0.45430920    -0.46500
C49         C  0.03938955  0.49093536  0.39091553     0.42800
N50         N  0.44969647  0.05565793  0.45284812     0.01700
N51         N  0.45859286  0.42034310  0.48072396    -0.25200
N52         N  0.00421176  0.00544262  0.05128402    -0.25700
N53         N  0.42633715  0.41939299  0.48990141     0.01300
H54         H  0.49455137  0.39553661  0.43598634     0.07200
H55         H  0.34767062  0.43115054  0.46790465     0.07200
N56         N  0.41748905  0.05395868  0.46104669    -0.25700
N57         N  0.37277561  0.46725330  0.09346962    -0.25300
N58         N  0.00759213  0.47431425  0.45637130     0.01700
C59         C  0.43291162  0.08827972  0.10176417     0.43100
C60         C  0.47252090  0.39797962  0.11487955    -0.06600
N61         N  0.37162895  0.46778469  0.49337712    -0.25300
H62         H  0.35048837  0.43049023  0.14933149     0.07200
N63         N  0.46000215  0.07667476  0.07627614    -0.46600
H64         H  0.49826624  0.39406992  0.11690183     0.07200
C65         C  0.43929913  0.38916939  0.43628561     0.42900
C66         C  0.02129831  0.01710638  0.07963292    -0.06100
Co67       Co  0.48433048  0.44608299  0.01863308     0.73800
N68         N  0.41731675  0.39656563  0.12803353    -0.46300
C69         C  0.43406116  0.08887769  0.39504714     0.43200
N70         N  0.02825402  0.46400480  0.42157007    -0.46300
Co71       Co  0.39934464  0.44242600  0.04205258     0.73900
C72         C  0.35294346  0.45657375  0.46633249    -0.06600
C73         C  0.40501845  0.07178499  0.09256818    -0.06200
N74         N  0.00491138  0.00649432  0.45093117    -0.25700
N75         N  0.35074528  0.01110071  0.12061257    -0.46500
H76         H  0.37964593  0.07918563  0.42517443     0.07200
C77         C  0.46916687  0.40160952  0.44760001    -0.06600
Cl78       Cl  0.43871233  0.48662242  0.02149100    -0.49600
C79         C  0.44384285  0.38293647  0.14604660     0.42900
H80         H  0.02958047  0.04473404  0.40134985     0.07200
N81         N  0.41400316  0.40110765  0.46442429    -0.46300
C82         C  0.45380494  0.32659222  0.35241351    -0.08800
C83         C  0.42649498  0.30680914  0.36907885     0.07400
C84         C  0.40319272  0.31509796  0.40645694    -0.02600
C85         C  0.40808383  0.34194509  0.42733654    -0.07000
C86         C  0.43579673  0.36137032  0.41162489     0.06500
C87         C  0.45839096  0.35396212  0.37278897    -0.02100
Br88       Br  0.99447888  0.38123734  0.34349752    -0.01800
H89         H  0.47183504  0.32066226  0.32354089     0.10400
H90         H  0.38993310  0.34753436  0.45632189     0.08400
Br91       Br  0.36319097  0.29197489  0.42907059    -0.02200
C92         C  0.46100336  0.30560035  0.23212841    -0.08800
C93         C  0.43167215  0.30368199  0.26408141     0.07400
C94         C  0.40732500  0.32822449  0.25774069    -0.02600
C95         C  0.41253695  0.35406252  0.22005408    -0.07000
C96         C  0.44162328  0.35595444  0.18722903     0.06500
C97         C  0.46599518  0.33099916  0.19350209    -0.02100
Br98       Br  0.00487803  0.32731982  0.14874967    -0.01800
H99         H  0.47952122  0.28639293  0.23634986     0.10400
H100        H  0.39324178  0.37246129  0.21580912     0.08400
Br101      Br  0.36543258  0.32601256  0.29722092    -0.02200
C102        C  0.40571189  0.12392099  0.33443210    -0.08800
C103        C  0.43428291  0.11667179  0.35498797     0.07400
C104        C  0.46169586  0.13688084  0.33749559    -0.02600
C105        C  0.45955356  0.16381122  0.30183365    -0.07000
C106        C  0.43102609  0.17078439  0.28167341     0.06500
C107        C  0.40397856  0.15051908  0.29820881    -0.02100
Br108      Br  0.36340261  0.15975632  0.27453212    -0.01800
H109        H  0.38437417  0.10900496  0.34669824     0.10400
H110        H  0.48024287  0.17965846  0.28979630     0.08400
Br111      Br  0.50266555  0.13045530  0.36089456    -0.02200
C112        C  0.45828237  0.12190152  0.14865572    -0.08800
C113        C  0.43194657  0.11700944  0.12594654     0.07400
C114        C  0.40557101  0.14009072  0.12627307    -0.02600
C115        C  0.40460116  0.16530726  0.15258570    -0.07000
C116        C  0.43031703  0.16958189  0.17657365     0.06500
C117        C  0.45803471  0.14845022  0.17279097    -0.02100
Br118      Br  0.49764099  0.15710824  0.19402204    -0.01800
H119        H  0.47945399  0.10541272  0.14676938     0.10400
H120        H  0.38404743  0.18259261  0.15285193     0.08400
Br121      Br  0.37245443  0.14228067  0.08666103    -0.02200
C122        C  0.27906302  0.46864868  0.36224033    -0.08800
C123        C  0.25766689  0.49586775  0.36472756     0.07400
C124        C  0.26419979  0.52004597  0.39033528    -0.02600
C125        C  0.29106516  0.51614277  0.41411254    -0.07000
C126        C  0.31212235  0.48855823  0.41274959     0.06500
C127        C  0.30637030  0.46496669  0.38545989    -0.02100
Br128      Br  0.33565848  0.42850436  0.37548996    -0.01800
H129        H  0.27440040  0.44999211  0.34242735     0.10400
H130        H  0.29534841  0.53488138  0.43404558     0.08400
Br131      Br  0.23841015  0.55977529  0.39238781    -0.02200
C132        C  0.29101582  0.46062006  0.20785149    -0.08800
C133        C  0.31230702  0.48702701  0.19274458     0.07400
C134        C  0.30612082  0.51504479  0.21494840    -0.02600
C135        C  0.27820066  0.51696103  0.24892482    -0.07000
C136        C  0.25622546  0.49120505  0.26217688     0.06500
C137        C  0.26339584  0.46246550  0.24244358    -0.02100
Br138      Br  0.23621409  0.42519644  0.26233558    -0.01800
H139        H  0.29542755  0.43859828  0.19221804     0.10400
H140        H  0.27350162  0.03869777  0.26525085     0.08400
Br141      Br  0.33569074  0.05073409  0.20273430    -0.02200
C142        C  0.08810158  0.96342271  0.34873792    -0.08800
C143        C  0.06677889  0.49098512  0.35036548     0.07400
C144        C  0.07257299  0.51793257  0.31328979    -0.02600
C145        C  0.10012757  0.51767823  0.27831441    -0.07000
C146        C  0.12196677  0.49077173  0.27815618     0.06500
C147        C  0.11523670  0.96309459  0.31284868    -0.02100
Br148      Br  0.14263317  0.92455937  0.31197111    -0.01800
H149        H  0.08394390  0.94211841  0.37578265     0.10400
H150        H  0.10461739  0.53864585  0.25074636     0.08400
Br151      Br  0.04310940  0.55495822  0.30492512    -0.02200
C152        C  0.10251623  0.46381832  0.18240262    -0.08800
C153        C  0.11977029  0.49291651  0.17462163     0.07400
C154        C  0.10922301  0.02030638  0.14507817    -0.02600
C155        C  0.08210282  0.01821550  0.12323569    -0.07000
C156        C  0.06497634  0.48897936  0.12976490     0.06500
C157        C  0.07540098  0.46151138  0.16001132    -0.02100
Br158      Br  0.05366713  0.42047371  0.17296739    -0.01800
H159        H  0.11056979  0.44265216  0.20525362     0.10400
H160        H  0.07497407  0.03968259  0.10025456     0.08400
Br161      Br  0.13053608  0.06152373  0.13406208    -0.02200
N162        N  0.15065823  0.99207174  0.74227584    -0.03100
C163        C  0.14980905  0.99401182  0.69572934    -0.00500
C164        C  0.18050735  0.49961142  0.66992721    -0.23400
C165        C  0.20110130  0.50174639  0.70161959    -0.23600
C166        C  0.18245642  0.49677988  0.74619890    -0.00600
H167        H  0.18697358  0.50307331  0.63200006     0.13100
H168        H  0.22653556  0.50796957  0.69193343     0.13200
N169        N  0.22747263  0.49409493  0.79719353    -0.03100
C170        C  0.22803658  0.49776529  0.84234797    -0.00500
C171        C  0.19685296  0.50341766  0.86490419    -0.23400
C172        C  0.17635201  0.50415261  0.83230906    -0.23600
C173        C  0.19543807  0.49797793  0.79078915    -0.00600
H174        H  0.18973208  0.50704490  0.90108406     0.13100
H175        H  0.15049913  0.50983819  0.83891612     0.13200
N176        N  0.42943350  0.19923172  0.74575472    -0.03100
C177        C  0.42905795  0.19891479  0.69937756    -0.00500
C178        C  0.42219147  0.22981737  0.67685431    -0.23400
C179        C  0.41848838  0.24998393  0.71011048    -0.23600
C180        C  0.42374996  0.23102575  0.75223867    -0.00600
H181        H  0.41889227  0.23672208  0.64044322     0.13100
H182        H  0.41114789  0.27543950  0.70370943     0.13200
N183        N  0.42636719  0.27592491  0.80138348    -0.03100
C184        C  0.42334416  0.27705440  0.84808222    -0.00500
C185        C  0.41757879  0.24628017  0.87374750    -0.23400
C186        C  0.41655139  0.22556401  0.84193679    -0.23600
C187        C  0.42248748  0.24407696  0.79734085    -0.00600
H188        H  0.41446958  0.23949942  0.91162338     0.13100
H189        H  0.41117823  0.19996651  0.85151194     0.13200
C190        C  0.03734429  0.48840421  0.60364571     0.42800
N191        N  0.00786208  0.47323207  0.55719758     0.01700
C192        C  0.40543509  0.07387166  0.92603391    -0.06200
H193        H  0.37953677  0.07450368  0.60591072     0.07200
C194        C  0.35418265  0.45593559  0.63486295    -0.06500
Co195      Co  0.47773466  0.03110647  0.50176656     0.74200
N196        N  0.41787341  0.05269586  0.56135210    -0.25700
Co197      Co  0.39339821  0.02688021  0.52357006     0.74100
C198        C  0.33982031  0.48514512  0.65340386     0.42900
N199        N  0.42790915  0.41748074  0.58976039     0.01300
N200        N  0.37019565  0.99946690  0.58623058     0.01400
N201        N  0.46054767  0.07627505  0.91408465    -0.46600
H202        H  0.02399833  0.04272514  0.58051289     0.07500
N203        N  0.44994492  0.05536242  0.55277479     0.01700
N204        N  0.37010031  0.99980086  0.98555387     0.01400
C205        C  0.33981966  0.48563175  0.93962508     0.43000
N206        N  0.46016541  0.41868889  0.58099754    -0.25200
C207        C  0.02429315  0.01930414  0.91138523    -0.06100
N208        N  0.02768125  0.46206312  0.58802887    -0.46300
N209        N  0.35112105  0.01154445  0.95410471    -0.46500
C210        C  0.03940699  0.49119550  0.89088632     0.42800
N211        N  0.44970277  0.05571866  0.95279299     0.01700
N212        N  0.45871361  0.42033238  0.98064857    -0.25200
N213        N  0.00438350  0.00538781  0.55109316    -0.25700
N214        N  0.42646228  0.41928721  0.98993343     0.01300
H215        H  0.49468643  0.39543506  0.93604003     0.07200
H216        H  0.34779121  0.43089423  0.96808451     0.07200
N217        N  0.41750199  0.05393140  0.96083900    -0.25700
N218        N  0.37267432  0.46725992  0.59353047    -0.25300
N219        N  0.00763413  0.47446663  0.95634781     0.01700
C220        C  0.43325877  0.08817011  0.60183248     0.43100
C221        C  0.47236359  0.39816656  0.61513342    -0.06600
N222        N  0.37175152  0.46762544  0.99335014    -0.25300
H223        H  0.35029396  0.43042308  0.64919628     0.07200
N224        N  0.46027784  0.07657172  0.57619962    -0.46600
H225        H  0.49810224  0.39432626  0.61725405     0.07200
C226        C  0.43944160  0.38889744  0.93654227     0.42900
C227        C  0.02176254  0.01708995  0.57905622    -0.06100
Co228      Co  0.48425976  0.44603259  0.51870066     0.73800
N229        N  0.41716325  0.39667319  0.62818403    -0.46300
C230        C  0.43413379  0.08887480  0.89486766     0.43200
N231        N  0.02828139  0.46422668  0.92147605    -0.46300
Co232      Co  0.39922684  0.44248976  0.54206468     0.73900
C233        C  0.35307150  0.45633024  0.96638334    -0.06600
C234        C  0.40529867  0.07168632  0.59282183    -0.06200
N235        N  0.00494542  0.00664351  0.95101025    -0.25700
N236        N  0.35070229  0.01105669  0.62085734    -0.46500
H237        H  0.37970375  0.07904056  0.92473966     0.07200
C238        C  0.46929880  0.40150323  0.94764737    -0.06600
Cl239      Cl  0.43868718  0.48661064  0.52155190    -0.49600
C240        C  0.44368592  0.38313814  0.64630877     0.42900
H241        H  0.02953946  0.04496097  0.90150204     0.07200
N242        N  0.41414114  0.40083794  0.96466373    -0.46300
C243        C  0.45393615  0.32647707  0.85245297    -0.08800
C244        C  0.42673604  0.30656166  0.86922322     0.07400
C245        C  0.40352526  0.31467006  0.90683332    -0.02600
C246        C  0.40839978  0.34148362  0.92780310    -0.07000
C247        C  0.43598399  0.36106740  0.91192265     0.06500
C248        C  0.45847979  0.35382765  0.87289101    -0.02100
Br249      Br  0.99432736  0.38135378  0.84337952    -0.01800
H250        H  0.47189933  0.32068632  0.82341772     0.10400
H251        H  0.39032467  0.34694818  0.95695039     0.08400
Br252      Br  0.36363066  0.29138441  0.92959673    -0.02200
C253        C  0.46099403  0.30564530  0.73198822    -0.08800
C254        C  0.43175033  0.30368503  0.76412686     0.07400
C255        C  0.40741199  0.32828489  0.75806901    -0.02600
C256        C  0.41253643  0.35419303  0.72044827    -0.07000
C257        C  0.44152372  0.35610244  0.68742704     0.06500
C258        C  0.46588576  0.33110476  0.69343281    -0.02100
Br259      Br  0.00459122  0.32743608  0.64834865    -0.01800
H260        H  0.47950869  0.28641108  0.73598880     0.10400
H261        H  0.39325553  0.37263302  0.71640559     0.08400
Br262      Br  0.36564843  0.32608492  0.79788301    -0.02200
C263        C  0.40591491  0.12381299  0.83396997    -0.08800
C264        C  0.43440112  0.11665017  0.85475565     0.07400
C265        C  0.46178512  0.13692648  0.83743001    -0.02600
C266        C  0.45969631  0.16383100  0.80170874    -0.07000
C267        C  0.43124515  0.17074022  0.78134430     0.06500
C268        C  0.40422991  0.15040078  0.79770254    -0.02100
Br269      Br  0.36374511  0.15952364  0.77373824    -0.01800
H270        H  0.38460259  0.10884386  0.84610467     0.10400
H271        H  0.48035649  0.17973214  0.78981920     0.08400
Br272      Br  0.50262807  0.13066338  0.86119134    -0.02200
C273        C  0.45863804  0.12188994  0.64856615    -0.08800
C274        C  0.43236098  0.11700983  0.62574223     0.07400
C275        C  0.40607009  0.14017718  0.62575300    -0.02600
C276        C  0.40507404  0.16545429  0.65195776    -0.07000
C277        C  0.43069043  0.16968279  0.67615993     0.06500
C278        C  0.45837098  0.14848713  0.67260814    -0.02100
Br279      Br  0.49790885  0.15709487  0.69405868    -0.01800
H280        H  0.47976089  0.10533327  0.64688562     0.10400
H281        H  0.38456181  0.18278584  0.65203112     0.08400
Br282      Br  0.37310501  0.14233185  0.58589880    -0.02200
C283        C  0.27896006  0.46825798  0.86263577    -0.08800
C284        C  0.25757628  0.49548276  0.86519715     0.07400
C285        C  0.26412319  0.51962315  0.89085855    -0.02600
C286        C  0.29103810  0.51571846  0.91451266    -0.07000
C287        C  0.31213029  0.48817509  0.91297489     0.06500
C288        C  0.30631468  0.46457143  0.88575043    -0.02100
Br289      Br  0.33557967  0.42809811  0.87573251    -0.01800
H290        H  0.27426639  0.44961914  0.84281119     0.10400
H291        H  0.29535132  0.53444314  0.93445195     0.08400
Br292      Br  0.23832633  0.55933247  0.89311779    -0.02200
C293        C  0.29091605  0.46048706  0.70797247    -0.08800
C294        C  0.31225283  0.48686846  0.69296361     0.07400
C295        C  0.30617566  0.51479197  0.71538764    -0.02600
C296        C  0.27829691  0.51667286  0.74945107    -0.07000
C297        C  0.25625551  0.49096684  0.76257482     0.06500
C298        C  0.26334167  0.46228906  0.74265996    -0.02100
Br299      Br  0.23605700  0.42507910  0.76234826    -0.01800
H300        H  0.29524886  0.43852834  0.69217627     0.10400
H301        H  0.27367162  0.03835525  0.76591635     0.08400
Br302      Br  0.33584645  0.05039019  0.70332908    -0.02200
C303        C  0.08796571  0.96359337  0.84856131    -0.08800
C304        C  0.06681516  0.49127012  0.85033791     0.07400
C305        C  0.07279105  0.51829298  0.81340255    -0.02600
C306        C  0.10034772  0.51795833  0.77842620    -0.07000
C307        C  0.12200941  0.49091446  0.77814719     0.06500
C308        C  0.11509659  0.96319849  0.81269075    -0.02100
Br309      Br  0.14223725  0.92450442  0.81162546    -0.01800
H310        H  0.08367305  0.94223330  0.87547757     0.10400
H311        H  0.10498338  0.53896963  0.75096574     0.08400
Br312      Br  0.04359236  0.55554862  0.80521335    -0.02200
C313        C  0.10283930  0.46374399  0.68208834    -0.08800
C314        C  0.12002401  0.49286722  0.67454454     0.07400
C315        C  0.10955675  0.02026663  0.64494726    -0.02600
C316        C  0.08254606  0.01817583  0.62286519    -0.07000
C317        C  0.06545335  0.48892730  0.62921425     0.06500
C318        C  0.07583997  0.46143395  0.65946119    -0.02100
Br319      Br  0.05422534  0.42034053  0.67210852    -0.01800
H320        H  0.11086370  0.44255859  0.70493209     0.10400
H321        H  0.07546180  0.03965703  0.59987225     0.08400
Br322      Br  0.13086247  0.06147979  0.63418027    -0.02200
N323        N  0.15057142  0.49201251  0.24219997    -0.03100
C324        C  0.14962437  0.49406803  0.19566072    -0.00500
C325        C  0.18027311  0.99979802  0.16975499    -0.23400
C326        C  0.20093440  0.00189464  0.20138003    -0.23600
C327        C  0.18237261  0.99681042  0.24601303    -0.00600
H328        H  0.18666158  0.00336397  0.13181441     0.13100
H329        H  0.22634943  0.00818613  0.19163192     0.13200
N330        N  0.22747073  0.99432064  0.29684216    -0.03100
C331        C  0.22808879  0.99807211  0.34195150    -0.00500
C332        C  0.19691180  0.00366885  0.36457785    -0.23400
C333        C  0.17636094  0.00428183  0.33207307    -0.23600
C334        C  0.19541129  0.99808845  0.29053774    -0.00600
H335        H  0.18982728  0.00733642  0.40074598     0.13100
H336        H  0.15049791  0.00991112  0.33873796     0.13200
N337        N  0.42919267  0.69923344  0.24603626    -0.03100
C338        C  0.42876486  0.69885278  0.19969084    -0.00500
C339        C  0.42191482  0.72973809  0.17709906    -0.23400
C340        C  0.41826755  0.74995604  0.21028414    -0.23600
C341        C  0.42353800  0.73104101  0.25244054    -0.00600
H342        H  0.41858152  0.73659634  0.14069542     0.13100
H343        H  0.41095009  0.77541446  0.20381954     0.13200
N344        N  0.42619654  0.77600010  0.30142567    -0.03100
C345        C  0.42309027  0.77723819  0.34809319    -0.00500
C346        C  0.41724445  0.74650981  0.37387320    -0.23400
C347        C  0.41626828  0.72571217  0.34214266    -0.23600
C348        C  0.42228184  0.74414460  0.29749556    -0.00600
H349        H  0.41405378  0.73981544  0.41176544     0.13100
H350        H  0.41087948  0.70012011  0.35178903     0.13200
C351        C  0.03684202  0.98841728  0.10428010     0.42800
N352        N  0.00778922  0.97329506  0.05726027     0.01700
C353        C  0.40538224  0.57394744  0.42633430    -0.06200
H354        H  0.37923506  0.57454082  0.10556042     0.07200
C355        C  0.35432842  0.95599288  0.13487151    -0.06500
Co356      Co  0.47767253  0.53119292  0.00183531     0.74200
N357        N  0.41770383  0.55277483  0.06117644    -0.25700
Co358      Co  0.39339296  0.52684259  0.02336337     0.74100
C359        C  0.33992227  0.98524243  0.15327981     0.42900
N360        N  0.42804565  0.91745512  0.08970621     0.01300
N361        N  0.37022927  0.49945628  0.08603244     0.01400
N362        N  0.46050928  0.57620378  0.41411295    -0.46600
H363        H  0.02336615  0.54272585  0.08134186     0.07500
N364        N  0.44977151  0.55544741  0.05278052     0.01700
N365        N  0.36997434  0.49996073  0.48572480     0.01400
C366        C  0.33968620  0.98593239  0.43968329     0.43000
N367        N  0.46030053  0.91863023  0.08088275    -0.25200
C368        C  0.02428445  0.51909116  0.41129835    -0.06100
N369        N  0.02741867  0.96210614  0.08834431    -0.46300
N370        N  0.35098701  0.51178505  0.45430966    -0.46500
C371        C  0.03938850  0.99093423  0.39091636     0.42800
N372        N  0.44969648  0.55565872  0.45284822     0.01700
N373        N  0.45859136  0.92034210  0.48072565    -0.25200
N374        N  0.00421194  0.50544237  0.05128528    -0.25700
N375        N  0.42633561  0.91939244  0.48990276     0.01300
H376        H  0.49454974  0.89553431  0.43598972     0.07200
H377        H  0.34766895  0.93115131  0.46790447     0.07200
N378        N  0.41748908  0.55395900  0.46104716    -0.25700
N379        N  0.37277458  0.96725550  0.09346944    -0.25300
N380        N  0.00759132  0.97431302  0.45637230     0.01700
C381        C  0.43290978  0.58827900  0.10176533     0.43100
C382        C  0.47251909  0.89798021  0.11488017    -0.06600
N383        N  0.37162785  0.96778503  0.49337715    -0.25300
H384        H  0.35048643  0.93049306  0.14933146     0.07200
N385        N  0.46000075  0.57667449  0.07627759    -0.46600
H386        H  0.49826439  0.89407036  0.11690246     0.07200
C387        C  0.43929746  0.88916770  0.43628828     0.42900
C388        C  0.02129832  0.51710584  0.07963472    -0.06100
Co389      Co  0.48432941  0.94608316  0.01863314     0.73800
N390        N  0.41731494  0.89656689  0.12803396    -0.46300
C391        C  0.43406045  0.58887842  0.39504766     0.43200
N392        N  0.02825317  0.96400358  0.42157096    -0.46300
Co393      Co  0.39934322  0.94242748  0.04205272     0.73900
C394        C  0.35294218  0.95657441  0.46633237    -0.06600
C395        C  0.40501721  0.57178339  0.09256930    -0.06200
N396        N  0.00491213  0.50649554  0.45093026    -0.25700
N397        N  0.35074573  0.51109801  0.12061351    -0.46500
H398        H  0.37964545  0.57918544  0.42517553     0.07200
C399        C  0.46916529  0.90160777  0.44760260    -0.06600
Cl400      Cl  0.43871167  0.98662325  0.02149056    -0.49600
C401        C  0.44384085  0.88293727  0.14604720     0.42900
H402        H  0.02958138  0.54473523  0.40134905     0.07200
N403        N  0.41400153  0.90110673  0.46442620    -0.46300
C404        C  0.45380232  0.82659068  0.35241562    -0.08800
C405        C  0.42649120  0.80680900  0.36907922     0.07400
C406        C  0.40318868  0.81509850  0.40645649    -0.02600
C407        C  0.40808053  0.84194506  0.42733689    -0.07000
C408        C  0.43579456  0.86136896  0.41162697     0.06500
C409        C  0.45838927  0.85395990  0.37279200    -0.02100
Br410      Br  0.99447941  0.88123282  0.34350302    -0.01800
H411        H  0.47183274  0.82066002  0.32354377     0.10400
H412        H  0.38992948  0.84753493  0.45632150     0.08400
Br413      Br  0.36318583  0.79197699  0.42906809    -0.02200
C414        C  0.46100109  0.80560145  0.23213052    -0.08800
C415        C  0.43166901  0.80368215  0.26408163     0.07400
C416        C  0.40732119  0.82822365  0.25773905    -0.02600
C417        C  0.41253342  0.85406182  0.22005261    -0.07000
C418        C  0.44162080  0.85595489  0.18722950     0.06500
C419        C  0.46599336  0.83100044  0.19350446    -0.02100
Br420      Br  0.00487834  0.82732246  0.14875549    -0.01800
H421        H  0.47951950  0.78639473  0.23635341     0.10400
H422        H  0.39323769  0.87245979  0.21580633     0.08400
Br423      Br  0.36542767  0.82600986  0.29721649    -0.02200
C424        C  0.40571004  0.62392171  0.33443381    -0.08800
C425        C  0.43428167  0.61667231  0.35498819     0.07400
C426        C  0.46169473  0.63688092  0.33749395    -0.02600
C427        C  0.45955189  0.66381124  0.30183206    -0.07000
C428        C  0.43102378  0.67078464  0.28167345     0.06500
C429        C  0.40397622  0.65051961  0.29821037    -0.02100
Br430      Br  0.36339964  0.65975705  0.27453558    -0.01800
H431        H  0.38437222  0.60900600  0.34670120     0.10400
H432        H  0.48024128  0.67965819  0.28979342     0.08400
Br433      Br  0.50266549  0.63045470  0.36088984    -0.02200
C434        C  0.45828059  0.62190245  0.14865452    -0.08800
C435        C  0.43194395  0.61700878  0.12594792     0.07400
C436        C  0.40556710  0.64008870  0.12627694    -0.02600
C437        C  0.40459734  0.66530560  0.15258899    -0.07000
C438        C  0.43031418  0.66958168  0.17657427     0.06500
C439        C  0.45803269  0.64845132  0.17278944    -0.02100
Br440      Br  0.49763945  0.65711129  0.19401760    -0.01800
H441        H  0.47945301  0.60541477  0.14676641     0.10400
H442        H  0.38404289  0.68259004  0.15285691     0.08400
Br443      Br  0.37244803  0.64227654  0.08666929    -0.02200
C444        C  0.27906168  0.96865150  0.36223956    -0.08800
C445        C  0.25766622  0.99587108  0.36472678     0.07400
C446        C  0.26419979  0.02004898  0.39033455    -0.02600
C447        C  0.29106505  0.01614494  0.41411204    -0.07000
C448        C  0.31212154  0.98855987  0.41274919     0.06500
C449        C  0.30636890  0.96496869  0.38545929    -0.02100
Br450      Br  0.33565633  0.92850585  0.37548928    -0.01800
H451        H  0.27439856  0.94999517  0.34242650     0.10400
H452        H  0.29534881  0.03488336  0.43404515     0.08400
Br453      Br  0.23841121  0.05977895  0.39238676    -0.02200
C454        C  0.29101464  0.96062371  0.20785130    -0.08800
C455        C  0.31230579  0.98703065  0.19274353     0.07400
C456        C  0.30611949  0.01504886  0.21494643    -0.02600
C457        C  0.27819939  0.01696537  0.24892294    -0.07000
C458        C  0.25622434  0.99120931  0.26217594     0.06500
C459        C  0.26339475  0.96246947  0.24244342    -0.02100
Br460      Br  0.23621343  0.92520025  0.26233718    -0.01800
H461        H  0.29542640  0.93860159  0.19221866     0.10400
H462        H  0.27350293  0.53869316  0.26525334     0.08400
Br463      Br  0.33569241  0.55072965  0.20273777    -0.02200
C464        C  0.08810164  0.46342230  0.34873754    -0.08800
C465        C  0.06677764  0.99098462  0.35036601     0.07400
C466        C  0.07257051  0.01793220  0.31329031    -0.02600
C467        C  0.10012534  0.01767920  0.27831511    -0.07000
C468        C  0.12196583  0.99077371  0.27815679     0.06500
C469        C  0.11523661  0.46309298  0.31284839    -0.02100
Br470      Br  0.14263165  0.42455674  0.31197171    -0.01800
H471        H  0.08394315  0.44211815  0.37578239     0.10400
H472        H  0.10461424  0.03864698  0.25074714     0.08400
Br473      Br  0.04310459  0.05495595  0.30492517    -0.02200
C474        C  0.10251653  0.96381983  0.18240125    -0.08800
C475        C  0.11976914  0.99291880  0.17462221     0.07400
C476        C  0.10922545  0.52030382  0.14507576    -0.02600
C477        C  0.08210480  0.51821354  0.12323396    -0.07000
C478        C  0.06497591  0.98898052  0.12976435     0.06500
C479        C  0.07540158  0.96151237  0.16000951    -0.02100
Br480      Br  0.05366969  0.92047369  0.17296317    -0.01800
H481        H  0.11057102  0.94265351  0.20525104     0.10400
H482        H  0.07497685  0.53968035  0.10025153     0.08400
Br483      Br  0.13054092  0.56152004  0.13405610    -0.02200
N484        N  0.15065855  0.49206673  0.74227704    -0.03100
C485        C  0.14980920  0.49400758  0.69573045    -0.00500
C486        C  0.18050692  0.99961722  0.66992585    -0.23400
C487        C  0.20110056  0.00175375  0.70161802    -0.23600
C488        C  0.18245578  0.99678669  0.74619733    -0.00600
H489        H  0.18697304  0.00307916  0.63199868     0.13100
H490        H  0.22653454  0.00797824  0.69193192     0.13200
N491        N  0.22747173  0.99410283  0.79719190    -0.03100
C492        C  0.22803557  0.99777412  0.84234601    -0.00500
C493        C  0.19685190  0.00342743  0.86490153    -0.23400
C494        C  0.17635105  0.00416171  0.83230635    -0.23600
C495        C  0.19543723  0.99798593  0.79078721    -0.00600
H496        H  0.18973087  0.00705508  0.90108113     0.13100
H497        H  0.15049806  0.00984714  0.83891282     0.13200
N498        N  0.42943129  0.69923156  0.74575652    -0.03100
C499        C  0.42905542  0.69891448  0.69937952    -0.00500
C500        C  0.42218826  0.72981685  0.67685627    -0.23400
C501        C  0.41848509  0.74998351  0.71011236    -0.23600
C502        C  0.42374714  0.73102550  0.75224047    -0.00600
H503        H  0.41888870  0.73672132  0.64044528     0.13100
H504        H  0.41114423  0.77543896  0.70371138     0.13200
N505        N  0.42636356  0.77592475  0.80138519    -0.03100
C506        C  0.42334003  0.77705439  0.84808391    -0.00500
C507        C  0.41757474  0.74628020  0.87374933    -0.23400
C508        C  0.41654812  0.72556383  0.84193862    -0.23600
C509        C  0.42248431  0.74407675  0.79734262    -0.00600
H510        H  0.41446526  0.73949964  0.91162525     0.13100
H511        H  0.41117546  0.69996626  0.85151377     0.13200
C512        C  0.03734483  0.98840421  0.60364461     0.42800
N513        N  0.00786136  0.97323137  0.55719849     0.01700
C514        C  0.40543476  0.57387108  0.92603565    -0.06200
H515        H  0.37953695  0.57450162  0.60591296     0.07200
C516        C  0.35418080  0.95593715  0.63486325    -0.06500
Co517      Co  0.47773519  0.53110736  0.50176616     0.74200
N518        N  0.41787377  0.55269557  0.56135268    -0.25700
Co519      Co  0.39339864  0.52687993  0.52357048     0.74100
C520        C  0.33981910  0.98514720  0.65340349     0.42900
N521        N  0.42790732  0.91748081  0.58976161     0.01300
N522        N  0.37019652  0.49946598  0.58623097     0.01400
N523        N  0.46054728  0.57627558  0.91408663    -0.46600
H524        H  0.02399850  0.54272533  0.58051443     0.07500
N525        N  0.44994521  0.55536291  0.55277482     0.01700
N526        N  0.37010101  0.49979895  0.98555406     0.01400
C527        C  0.33981789  0.98563455  0.93962562     0.43000
N528        N  0.46016364  0.91868863  0.58099908    -0.25200
C529        C  0.02429418  0.51930447  0.91138632    -0.06100
N530        N  0.02768135  0.96206281  0.58802885    -0.46300
N531        N  0.35112188  0.51154205  0.95410448    -0.46500
C532        C  0.03940589  0.99119527  0.89088516     0.42800
N533        N  0.44970268  0.55571843  0.95279433     0.01700
N534        N  0.45871194  0.92033245  0.98064951    -0.25200
N535        N  0.00438428  0.50538853  0.55109263    -0.25700
N536        N  0.42646055  0.91928781  0.98993417     0.01300
H537        H  0.49468454  0.89543319  0.93604360     0.07200
H538        H  0.34778859  0.93089676  0.96808474     0.07200
N539        N  0.41750193  0.55393050  0.96084014    -0.25700
N540        N  0.37267284  0.96726080  0.59353068    -0.25300
N541        N  0.00763340  0.97446630  0.95634711     0.01700
C542        C  0.43325851  0.58817021  0.60183303     0.43100
C543        C  0.47236146  0.89816620  0.61513520    -0.06600
N544        N  0.37175025  0.96762732  0.99334992    -0.25300
H545        H  0.35029153  0.93042481  0.64919713     0.07200
N546        N  0.46027774  0.57657252  0.57619957    -0.46600
H547        H  0.49810006  0.89432575  0.61725611     0.07200
C548        C  0.43943964  0.88889629  0.93654514     0.42900
C549        C  0.02176273  0.51709027  0.57905686    -0.06100
Co550      Co  0.48425855  0.94603173  0.51870198     0.73800
N551        N  0.41716111  0.89667335  0.62818520    -0.46300
C552        C  0.43413321  0.58887517  0.89486993     0.43200
N553        N  0.02828058  0.96422635  0.92147515    -0.46300
Co554      Co  0.39922532  0.94248992  0.54206539     0.73900
C555        C  0.35306953  0.95633265  0.96638348    -0.06600
C556        C  0.40529880  0.57168551  0.59282296    -0.06200
N557        N  0.00494616  0.50664384  0.95101118    -0.25700
N558        N  0.35070291  0.51105510  0.62085815    -0.46500
H559        H  0.37970336  0.57903961  0.92474162     0.07200
C560        C  0.46929697  0.90150220  0.94764972    -0.06600
Cl561      Cl  0.43868627  0.98661026  0.52155242    -0.49600
C562        C  0.44368354  0.88313799  0.64631031     0.42900
H563        H  0.02954048  0.54496129  0.90150325     0.07200
N564        N  0.41413925  0.90083781  0.96466559    -0.46300
C565        C  0.45393371  0.82647533  0.85245643    -0.08800
C566        C  0.42673226  0.80656155  0.86922476     0.07400
C567        C  0.40352089  0.81467103  0.90683341    -0.02600
C568        C  0.40839596  0.84148427  0.92780360    -0.07000
C569        C  0.43598154  0.86106647  0.91192517     0.06500
C570        C  0.45847820  0.85382537  0.87289510    -0.02100
Br571      Br  0.99432866  0.88134859  0.84338666    -0.01800
H572        H  0.47189739  0.82068354  0.82342237     0.10400
H573        H  0.39032031  0.84694972  0.95694972     0.08400
Br574      Br  0.36362515  0.79138693  0.92959436    -0.02200
C575        C  0.46099112  0.80564545  0.73199102    -0.08800
C576        C  0.43174689  0.80368479  0.76412850     0.07400
C577        C  0.40740812  0.82828398  0.75806919    -0.02600
C578        C  0.41253278  0.85419207  0.72044837    -0.07000
C579        C  0.44152081  0.85610209  0.68742849     0.06500
C580        C  0.46588319  0.83110487  0.69343560    -0.02100
Br581      Br  0.00458984  0.82743667  0.64835347    -0.01800
H582        H  0.47950606  0.78641160  0.73599261     0.10400
H583        H  0.39325154  0.87263157  0.71640464     0.08400
Br584      Br  0.36564381  0.82608291  0.79788127    -0.02200
C585        C  0.40591327  0.62381378  0.83397375    -0.08800
C586        C  0.43440008  0.61665054  0.85475792     0.07400
C587        C  0.46178428  0.63692637  0.83743061    -0.02600
C588        C  0.45969521  0.66383059  0.80170891    -0.07000
C589        C  0.43124342  0.67074017  0.78134610     0.06500
C590        C  0.40422791  0.65040139  0.79770619    -0.02100
Br591      Br  0.36374234  0.65952515  0.77374426    -0.01800
H592        H  0.38460069  0.60884514  0.84610974     0.10400
H593        H  0.48035560  0.67973131  0.78981803     0.08400
Br594      Br  0.50262784  0.63066308  0.86119023    -0.02200
C595        C  0.45863804  0.62189181  0.64856435    -0.08800
C596        C  0.43236002  0.61700988  0.62574330     0.07400
C597        C  0.40606737  0.64017534  0.62575764    -0.02600
C598        C  0.40507088  0.66545219  0.65196296    -0.07000
C599        C  0.43068833  0.66968241  0.67616213     0.06500
C600        C  0.45837027  0.64848882  0.67260696    -0.02100
Br601      Br  0.49790854  0.65709943  0.69405419    -0.01800
H602        H  0.47976208  0.60533675  0.64688119     0.10400
H603        H  0.38455747  0.68278236  0.65203888     0.08400
Br604      Br  0.37309990  0.64232830  0.58590757    -0.02200
C605        C  0.27895745  0.96826420  0.86263528    -0.08800
C606        C  0.25757493  0.99548998  0.86519625     0.07400
C607        C  0.26412262  0.01962954  0.89085853    -0.02600
C608        C  0.29103721  0.01572325  0.91451337    -0.07000
C609        C  0.31212830  0.98817904  0.91297559     0.06500
C610        C  0.30631173  0.96457604  0.88575072    -0.02100
Br611      Br  0.33557502  0.92810147  0.87573321    -0.01800
H612        H  0.27426306  0.94962584  0.84281041     0.10400
H613        H  0.29535112  0.03444741  0.93445310     0.08400
Br614      Br  0.23832736  0.05933981  0.89311808    -0.02200
C615        C  0.29091375  0.96049148  0.70797229    -0.08800
C616        C  0.31225185  0.98687176  0.69296323     0.07400
C617        C  0.30617607  0.01479562  0.71538676    -0.02600
C618        C  0.27829738  0.01667799  0.74944983    -0.07000
C619        C  0.25625462  0.99097316  0.76257373     0.06500
C620        C  0.26333939  0.96229498  0.74265941    -0.02100
Br621      Br  0.23605303  0.92508634  0.76234823    -0.01800
H622        H  0.29524550  0.93853253  0.69217649     0.10400
H623        H  0.27367007  0.53834982  0.76591806     0.08400
Br624      Br  0.33584420  0.55038807  0.70333017    -0.02200
C625        C  0.08796524  0.46359166  0.84856272    -0.08800
C626        C  0.06681408  0.99127069  0.85033655     0.07400
C627        C  0.07278868  0.01829375  0.81340120    -0.02600
C628        C  0.10034578  0.01796071  0.77842520    -0.07000
C629        C  0.12200906  0.99091808  0.77814619     0.06500
C630        C  0.11509579  0.46319529  0.81269211    -0.02100
Br631      Br  0.14223504  0.42450014  0.81162808    -0.01800
H632        H  0.08367167  0.44223180  0.87547918     0.10400
H633        H  0.10498039  0.03897222  0.75096488     0.08400
Br634      Br  0.04358742  0.05554732  0.80521127    -0.02200
C635        C  0.10284231  0.96374522  0.68208389    -0.08800
C636        C  0.12002412  0.99286999  0.67454357     0.07400
C637        C  0.10955909  0.52026348  0.64494496    -0.02600
C638        C  0.08254806  0.51817372  0.62286312    -0.07000
C639        C  0.06545402  0.98892799  0.62921293     0.06500
C640        C  0.07584328  0.96143415  0.65945657    -0.02100
Br641      Br  0.05423296  0.92033853  0.67209905    -0.01800
H642        H  0.11086873  0.94255950  0.70492511     0.10400
H643        H  0.07546562  0.53965442  0.59986756     0.08400
Br644      Br  0.13086856  0.56147485  0.63417303    -0.02200
N645        N  0.65057035  0.99201566  0.24220026    -0.03100
C646        C  0.64962317  0.99407107  0.19566107    -0.00500
C647        C  0.68027453  0.49979418  0.16975495    -0.23400
C648        C  0.70093582  0.50189017  0.20138025    -0.23600
C649        C  0.68237379  0.49680644  0.24601311    -0.00600
H650        H  0.68666322  0.50335996  0.13181439     0.13100
H651        H  0.72635102  0.50818101  0.19163232     0.13200
N652        N  0.72747168  0.49431623  0.29684289    -0.03100
C653        C  0.72808952  0.49806795  0.34195222    -0.00500
C654        C  0.69691248  0.50366479  0.36457823    -0.23400
C655        C  0.67636183  0.50427781  0.33207322    -0.23600
C656        C  0.69541230  0.49808422  0.29053808    -0.00600
H657        H  0.68982780  0.50733265  0.40074617     0.13100
H658        H  0.65049889  0.50990752  0.33873790     0.13200
N659        N  0.92919551  0.19923331  0.24603624    -0.03100
C660        C  0.92876775  0.19885283  0.19969072    -0.00500
C661        C  0.92191747  0.22973820  0.17709929    -0.23400
C662        C  0.91826991  0.24995592  0.21028463    -0.23600
C663        C  0.92354069  0.23104083  0.25244079    -0.00600
H664        H  0.91858412  0.23659662  0.14069572     0.13100
H665        H  0.91095209  0.27541427  0.20382032     0.13200
N666        N  0.92619991  0.27600001  0.30142560    -0.03100
C667        C  0.92309452  0.27723809  0.34809305    -0.00500
C668        C  0.91724921  0.24650966  0.37387318    -0.23400
C669        C  0.91627232  0.22571203  0.34214286    -0.23600
C670        C  0.92228511  0.24414445  0.29749571    -0.00600
H671        H  0.91405919  0.23981527  0.41176540     0.13100
H672        H  0.91088354  0.20011997  0.35178944     0.13200
C673        C  0.53684206  0.48841654  0.10428147     0.42800
N674        N  0.50778962  0.47329482  0.05726089     0.01700
C675        C  0.90538264  0.07394718  0.42633349    -0.06200
H676        H  0.87923641  0.07454345  0.10555906     0.07200
C677        C  0.85432986  0.45599020  0.13487180    -0.06500
Co678      Co  0.97767246  0.03119308  0.00183406     0.74200
N679        N  0.91770446  0.05277624  0.06117522    -0.25700
Co680      Co  0.89339291  0.02684422  0.02336265     0.74100
C681        C  0.83992335  0.48523940  0.15328060     0.42900
N682        N  0.92804725  0.41745392  0.08970576     0.01300
N683        N  0.87022885  0.99945855  0.08603192     0.01400
N684        N  0.96050972  0.07620270  0.41411280    -0.46600
H685        H  0.52336606  0.04272648  0.08133955     0.07500
N686        N  0.94977221  0.05544814  0.05277906     0.01700
N687        N  0.86997378  0.99996110  0.48572456     0.01400
C688        C  0.83968693  0.48593147  0.43968374     0.43000
N689        N  0.96030208  0.41862942  0.08088220    -0.25200
C690        C  0.52428354  0.01908995  0.41129924    -0.06100
N691        N  0.52741897  0.46210566  0.08834493    -0.46300
N692        N  0.85098673  0.01178572  0.45430921    -0.46500
C693        C  0.53938953  0.49093536  0.39091548     0.42800
N694        N  0.94969647  0.05565793  0.45284813     0.01700
N695        N  0.95859285  0.42034310  0.48072395    -0.25200
N696        N  0.50421176  0.00544263  0.05128400    -0.25700
N697        N  0.92633714  0.41939300  0.48990142     0.01300
H698        H  0.99455136  0.39553661  0.43598633     0.07200
H699        H  0.84767054  0.43115056  0.46790476     0.07200
N700        N  0.91748904  0.05395869  0.46104669    -0.25700
N701        N  0.87277564  0.46725330  0.09346966    -0.25300
N702        N  0.50759213  0.47431426  0.45637128     0.01700
C703        C  0.93291165  0.08827972  0.10176417     0.43100
C704        C  0.97252092  0.39797962  0.11487954    -0.06600
N705        N  0.87162892  0.46778469  0.49337719    -0.25300
H706        H  0.85048846  0.43049023  0.14933160     0.07200
N707        N  0.96000219  0.07667478  0.07627614    -0.46600
H708        H  0.99826626  0.39406991  0.11690182     0.07200
C709        C  0.93929911  0.38916940  0.43628561     0.42900
C710        C  0.52129829  0.01710639  0.07963292    -0.06100
Co711      Co  0.98433048  0.44608299  0.01863307     0.73800
N712        N  0.91731677  0.39656565  0.12803353    -0.46300
C713        C  0.93406117  0.08887769  0.39504714     0.43200
N714        N  0.52825400  0.46400481  0.42157004    -0.46300
Co715      Co  0.89934464  0.44242600  0.04205262     0.73900
C716        C  0.85294341  0.45657374  0.46633257    -0.06600
C717        C  0.90501849  0.07178501  0.09256814    -0.06200
N718        N  0.50491136  0.00649431  0.45093116    -0.25700
N719        N  0.85074527  0.01110074  0.12061254    -0.46500
H720        H  0.87964594  0.07918564  0.42517440     0.07200
C721        C  0.96916685  0.40160953  0.44760000    -0.06600
Cl722      Cl  0.93871234  0.48662242  0.02149100    -0.49600
C723        C  0.94384287  0.38293648  0.14604659     0.42900
H724        H  0.52958046  0.04473403  0.40134984     0.07200
N725        N  0.91400314  0.40110766  0.46442429    -0.46300
C726        C  0.95380493  0.32659223  0.35241353    -0.08800
C727        C  0.92649496  0.30680915  0.36907885     0.07400
C728        C  0.90319271  0.31509797  0.40645692    -0.02600
C729        C  0.90808379  0.34194512  0.42733649    -0.07000
C730        C  0.93579670  0.36137034  0.41162486     0.06500
C731        C  0.95839095  0.35396214  0.37278898    -0.02100
Br732      Br  0.49447890  0.38123733  0.34349753    -0.01800
H733        H  0.97183505  0.32066225  0.32354093     0.10400
H734        H  0.88993305  0.34753440  0.45632180     0.08400
Br735      Br  0.86319095  0.29197492  0.42907057    -0.02200
C736        C  0.96100338  0.30560035  0.23212839    -0.08800
C737        C  0.93167216  0.30368199  0.26408140     0.07400
C738        C  0.90732501  0.32822449  0.25774063    -0.02600
C739        C  0.91253698  0.35406252  0.22005402    -0.07000
C740        C  0.94162330  0.35595444  0.18722900     0.06500
C741        C  0.96599520  0.33099915  0.19350206    -0.02100
Br742      Br  0.50487801  0.32731981  0.14874967    -0.01800
H743        H  0.97952124  0.28639293  0.23634984     0.10400
H744        H  0.89324179  0.37246128  0.21580905     0.08400
Br745      Br  0.86543253  0.32601255  0.29722072    -0.02200
C746        C  0.90571193  0.12392100  0.33443207    -0.08800
C747        C  0.93428292  0.11667180  0.35498797     0.07400
C748        C  0.96169589  0.13688085  0.33749560    -0.02600
C749        C  0.95955360  0.16381123  0.30183366    -0.07000
C750        C  0.93102613  0.17078440  0.28167341     0.06500
C751        C  0.90397859  0.15051908  0.29820879    -0.02100
Br752      Br  0.86340264  0.15975633  0.27453212    -0.01800
H753        H  0.88437418  0.10900496  0.34669821     0.10400
H754        H  0.98024291  0.17965846  0.28979631     0.08400
Br755      Br  0.00266558  0.13045529  0.36089458    -0.02200
C756        C  0.95828237  0.12190152  0.14865578    -0.08800
C757        C  0.93194658  0.11700943  0.12594659     0.07400
C758        C  0.90557102  0.14009071  0.12627310    -0.02600
C759        C  0.90460115  0.16530726  0.15258572    -0.07000
C760        C  0.93031703  0.16958190  0.17657367     0.06500
C761        C  0.95803470  0.14845022  0.17279101    -0.02100
Br762      Br  0.99764097  0.15710824  0.19402204    -0.01800
H763        H  0.97945400  0.10541273  0.14676943     0.10400
H764        H  0.88404745  0.18259261  0.15285193     0.08400
Br765      Br  0.87245451  0.14228070  0.08666092    -0.02200
C766        C  0.77906303  0.46864869  0.36224031    -0.08800
C767        C  0.75766688  0.49586774  0.36472758     0.07400
C768        C  0.76419978  0.52004596  0.39033529    -0.02600
C769        C  0.79106516  0.51614277  0.41411253    -0.07000
C770        C  0.81212235  0.48855823  0.41274959     0.06500
C771        C  0.80637031  0.46496670  0.38545986    -0.02100
Br772      Br  0.83565848  0.42850435  0.37548998    -0.01800
H773        H  0.77440040  0.44999212  0.34242734     0.10400
H774        H  0.79534841  0.53488138  0.43404559     0.08400
Br775      Br  0.73841013  0.55977527  0.39238782    -0.02200
C776        C  0.79101582  0.46062005  0.20785150    -0.08800
C777        C  0.81230702  0.48702700  0.19274461     0.07400
C778        C  0.80612082  0.51504478  0.21494843    -0.02600
C779        C  0.77820064  0.51696103  0.24892481    -0.07000
C780        C  0.75622544  0.49120505  0.26217688     0.06500
C781        C  0.76339583  0.46246549  0.24244358    -0.02100
Br782      Br  0.73621407  0.42519645  0.26233557    -0.01800
H783        H  0.79542755  0.43859826  0.19221807     0.10400
H784        H  0.77350160  0.03869777  0.26525085     0.08400
Br785      Br  0.83569071  0.05073409  0.20273430    -0.02200
C786        C  0.58810160  0.96342274  0.34873796    -0.08800
C787        C  0.56677887  0.49098511  0.35036543     0.07400
C788        C  0.57257298  0.51793255  0.31328973    -0.02600
C789        C  0.60012757  0.51767821  0.27831438    -0.07000
C790        C  0.62196678  0.49077173  0.27815618     0.06500
C791        C  0.61523671  0.96309463  0.31284871    -0.02100
Br792      Br  0.64263316  0.92455939  0.31197107    -0.01800
H793        H  0.58394394  0.94211845  0.37578271     0.10400
H794        H  0.60461740  0.53864583  0.25074632     0.08400
Br795      Br  0.54310939  0.55495820  0.30492492    -0.02200
C796        C  0.60251623  0.46381836  0.18240266    -0.08800
C797        C  0.61977030  0.49291654  0.17462163     0.07400
C798        C  0.60922298  0.02030642  0.14507818    -0.02600
C799        C  0.58210280  0.01821552  0.12323569    -0.07000
C800        C  0.56497635  0.48897937  0.12976490     0.06500
C801        C  0.57540100  0.46151141  0.16001134    -0.02100
Br802      Br  0.55366725  0.42047369  0.17296736    -0.01800
H803        H  0.61056979  0.44265222  0.20525368     0.10400
H804        H  0.57497404  0.03968260  0.10025456     0.08400
Br805      Br  0.63053604  0.06152378  0.13406205    -0.02200
N806        N  0.65065825  0.99207172  0.74227586    -0.03100
C807        C  0.64980907  0.99401178  0.69572936    -0.00500
C808        C  0.68050733  0.49961146  0.66992721    -0.23400
C809        C  0.70110129  0.50174644  0.70161958    -0.23600
C810        C  0.68245641  0.49677993  0.74619890    -0.00600
H811        H  0.68697357  0.50307331  0.63200006     0.13100
H812        H  0.72653555  0.50796959  0.69193341     0.13200
N813        N  0.72747261  0.49409493  0.79719355    -0.03100
C814        C  0.72803657  0.49776532  0.84234798    -0.00500
C815        C  0.69685295  0.50341771  0.86490419    -0.23400
C816        C  0.67635200  0.50415266  0.83230906    -0.23600
C817        C  0.69543805  0.49797797  0.79078915    -0.00600
H818        H  0.68973207  0.50704496  0.90108406     0.13100
H819        H  0.65049911  0.50983824  0.83891613     0.13200
N820        N  0.92943352  0.19923172  0.74575471    -0.03100
C821        C  0.92905793  0.19891480  0.69937756    -0.00500
C822        C  0.92219143  0.22981737  0.67685431    -0.23400
C823        C  0.91848834  0.24998393  0.71011048    -0.23600
C824        C  0.92374994  0.23102575  0.75223866    -0.00600
H825        H  0.91889222  0.23672208  0.64044322     0.13100
H826        H  0.91114783  0.27543950  0.70370944     0.13200
N827        N  0.92636716  0.27592490  0.80138346    -0.03100
C828        C  0.92334415  0.27705440  0.84808220    -0.00500
C829        C  0.91757877  0.24628017  0.87374748    -0.23400
C830        C  0.91655136  0.22556401  0.84193678    -0.23600
C831        C  0.92248745  0.24407696  0.79734083    -0.00600
H832        H  0.91446958  0.23949942  0.91162336     0.13100
H833        H  0.91117820  0.19996650  0.85151193     0.13200
C834        C  0.53734431  0.48840423  0.60364569     0.42800
N835        N  0.50786209  0.47323209  0.55719758     0.01700
C836        C  0.90543515  0.07387167  0.92603389    -0.06200
H837        H  0.87953676  0.07450368  0.60591071     0.07200
C838        C  0.85418266  0.45593560  0.63486296    -0.06500
Co839      Co  0.97773466  0.03110647  0.50176657     0.74200
N840        N  0.91787339  0.05269585  0.56135211    -0.25700
Co841      Co  0.89339820  0.02688021  0.52357006     0.74100
C842        C  0.83982030  0.48514512  0.65340387     0.42900
N843        N  0.92790915  0.41748073  0.58976039     0.01300
N844        N  0.87019562  0.99946690  0.58623056     0.01400
N845        N  0.96054775  0.07627506  0.91408464    -0.46600
H846        H  0.52399834  0.04272514  0.58051288     0.07500
N847        N  0.94994490  0.05536242  0.55277480     0.01700
N848        N  0.87010031  0.99980088  0.98555388     0.01400
C849        C  0.83981961  0.48563173  0.93962515     0.43000
N850        N  0.96016541  0.41868888  0.58099753    -0.25200
C851        C  0.52429311  0.01930417  0.91138519    -0.06100
N852        N  0.52768126  0.46206314  0.58802888    -0.46300
N853        N  0.85112104  0.01154446  0.95410473    -0.46500
C854        C  0.53940696  0.49119546  0.89088630     0.42800
N855        N  0.94970283  0.05571866  0.95279297     0.01700
N856        N  0.95871360  0.42033238  0.98064856    -0.25200
N857        N  0.50438351  0.00538781  0.55109315    -0.25700
N858        N  0.92646227  0.41928719  0.98993347     0.01300
H859        H  0.99468643  0.39543508  0.93604000     0.07200
H860        H  0.84779111  0.43089422  0.96808463     0.07200
N861        N  0.91750205  0.05393140  0.96083898    -0.25700
N862        N  0.87267433  0.46725993  0.59353049    -0.25300
N863        N  0.50763411  0.47446663  0.95634781     0.01700
C864        C  0.93325874  0.08817011  0.60183248     0.43100
C865        C  0.97236360  0.39816656  0.61513341    -0.06600
N866        N  0.87175148  0.46762543  0.99335019    -0.25300
H867        H  0.85029394  0.43042308  0.64919625     0.07200
N868        N  0.96027781  0.07657172  0.57619963    -0.46600
H869        H  0.99810225  0.39432626  0.61725404     0.07200
C870        C  0.93944158  0.38889740  0.93654235     0.42900
C871        C  0.52176254  0.01708996  0.57905622    -0.06100
Co872      Co  0.98425975  0.44603258  0.51870065     0.73800
N873        N  0.91716326  0.39667319  0.62818404    -0.46300
C874        C  0.93413387  0.08887480  0.89486765     0.43200
N875        N  0.52828135  0.46422666  0.92147605    -0.46300
Co876      Co  0.89922682  0.44248976  0.54206471     0.73900
C877        C  0.85307144  0.45633022  0.96638343    -0.06600
C878        C  0.90529864  0.07168632  0.59282184    -0.06200
N879        N  0.50494538  0.00664354  0.95101022    -0.25700
N880        N  0.85070228  0.01105668  0.62085735    -0.46500
H881        H  0.87970385  0.07904057  0.92473963     0.07200
C882        C  0.96929878  0.40150324  0.94764738    -0.06600
Cl883      Cl  0.93868718  0.48661063  0.52155190    -0.49600
C884        C  0.94368593  0.38313814  0.64630877     0.42900
H885        H  0.52953941  0.04496101  0.90150202     0.07200
N886        N  0.91414112  0.40083789  0.96466382    -0.46300
C887        C  0.95393614  0.32647709  0.85245294    -0.08800
C888        C  0.92673605  0.30656166  0.86922321     0.07400
C889        C  0.90352528  0.31467004  0.90683335    -0.02600
C890        C  0.90839979  0.34148359  0.92780313    -0.07000
C891        C  0.93598397  0.36106739  0.91192268     0.06500
C892        C  0.95847977  0.35382766  0.87289100    -0.02100
Br893      Br  0.49432740  0.38135377  0.84337952    -0.01800
H894        H  0.97189931  0.32068635  0.82341768     0.10400
H895        H  0.89032469  0.34694812  0.95695048     0.08400
Br896      Br  0.86363072  0.29138434  0.92959680    -0.02200
C897        C  0.96099402  0.30564529  0.73198822    -0.08800
C898        C  0.93175031  0.30368503  0.76412685     0.07400
C899        C  0.90741198  0.32828489  0.75806900    -0.02600
C900        C  0.91253642  0.35419304  0.72044827    -0.07000
C901        C  0.94152372  0.35610244  0.68742704     0.06500
C902        C  0.96588577  0.33110476  0.69343282    -0.02100
Br903      Br  0.50459121  0.32743608  0.64834863    -0.01800
H904        H  0.97950866  0.28641106  0.73598879     0.10400
H905        H  0.89325553  0.37263303  0.71640559     0.08400
Br906      Br  0.86564841  0.32608492  0.79788299    -0.02200
C907        C  0.90591499  0.12381299  0.83396995    -0.08800
C908        C  0.93440120  0.11665016  0.85475562     0.07400
C909        C  0.96178519  0.13692648  0.83742997    -0.02600
C910        C  0.95969638  0.16383100  0.80170871    -0.07000
C911        C  0.93124521  0.17074023  0.78134429     0.06500
C912        C  0.90422998  0.15040077  0.79770252    -0.02100
Br913      Br  0.86374519  0.15952364  0.77373821    -0.01800
H914        H  0.88460266  0.10884386  0.84610466     0.10400
H915        H  0.98035656  0.17973214  0.78981918     0.08400
Br916      Br  0.00262813  0.13066339  0.86119132    -0.02200
C917        C  0.95863800  0.12188994  0.64856615    -0.08800
C918        C  0.93236094  0.11700983  0.62574224     0.07400
C919        C  0.90607006  0.14017718  0.62575299    -0.02600
C920        C  0.90507401  0.16545430  0.65195776    -0.07000
C921        C  0.93069041  0.16968279  0.67615993     0.06500
C922        C  0.95837095  0.14848712  0.67260814    -0.02100
Br923      Br  0.99790882  0.15709486  0.69405868    -0.01800
H924        H  0.97976086  0.10533327  0.64688562     0.10400
H925        H  0.88456180  0.18278584  0.65203111     0.08400
Br926      Br  0.87310498  0.14233185  0.58589880    -0.02200
C927        C  0.77896002  0.46825800  0.86263579    -0.08800
C928        C  0.75757627  0.49548280  0.86519716     0.07400
C929        C  0.76412321  0.51962319  0.89085855    -0.02600
C930        C  0.79103810  0.51571846  0.91451269    -0.07000
C931        C  0.81213025  0.48817508  0.91297493     0.06500
C932        C  0.80631464  0.46457143  0.88575046    -0.02100
Br933      Br  0.83557963  0.42809811  0.87573253    -0.01800
H934        H  0.77426633  0.44961917  0.84281121     0.10400
H935        H  0.79535133  0.53444313  0.93445198     0.08400
Br936      Br  0.73832648  0.55933259  0.89311772    -0.02200
C937        C  0.79091603  0.46048707  0.70797245    -0.08800
C938        C  0.81225282  0.48686845  0.69296363     0.07400
C939        C  0.80617566  0.51479195  0.71538772    -0.02600
C940        C  0.77829690  0.51667283  0.74945113    -0.07000
C941        C  0.75625549  0.49096684  0.76257484     0.06500
C942        C  0.76334165  0.46228906  0.74265995    -0.02100
Br943      Br  0.73605698  0.42507911  0.76234825    -0.01800
H944        H  0.79524883  0.43852835  0.69217622     0.10400
H945        H  0.77367160  0.03835526  0.76591631     0.08400
Br946      Br  0.83584643  0.05039020  0.70332907    -0.02200
C947        C  0.58796569  0.96359338  0.84856129    -0.08800
C948        C  0.56681516  0.49127006  0.85033792     0.07400
C949        C  0.57279103  0.51829292  0.81340255    -0.02600
C950        C  0.60034770  0.51795830  0.77842622    -0.07000
C951        C  0.62200942  0.49091447  0.77814720     0.06500
C952        C  0.61509658  0.96319850  0.81269076    -0.02100
Br953      Br  0.64223722  0.92450440  0.81162546    -0.01800
H954        H  0.58367301  0.94223331  0.87547754     0.10400
H955        H  0.60498333  0.53896961  0.75096576     0.08400
Br956      Br  0.54359226  0.55554851  0.80521329    -0.02200
C957        C  0.60283930  0.46374401  0.68208837    -0.08800
C958        C  0.62002400  0.49286724  0.67454456     0.07400
C959        C  0.60955680  0.02026663  0.64494722    -0.02600
C960        C  0.58254612  0.01817583  0.62286513    -0.07000
C961        C  0.56545336  0.48892731  0.62921425     0.06500
C962        C  0.57583997  0.46143396  0.65946121    -0.02100
Br963      Br  0.55422531  0.42034056  0.67210852    -0.01800
H964        H  0.61086370  0.44255861  0.70493212     0.10400
H965        H  0.57546188  0.03965704  0.59987213     0.08400
Br966      Br  0.63086261  0.06147974  0.63418026    -0.02200
N967        N  0.65057142  0.49201251  0.24219997    -0.03100
C968        C  0.64962437  0.49406804  0.19566072    -0.00500
C969        C  0.68027309  0.99979813  0.16975498    -0.23400
C970        C  0.70093439  0.00189469  0.20138004    -0.23600
C971        C  0.68237261  0.99681045  0.24601303    -0.00600
H972        H  0.68666155  0.00336410  0.13181440     0.13100
H973        H  0.72634943  0.00818615  0.19163192     0.13200
N974        N  0.72747073  0.99432063  0.29684218    -0.03100
C975        C  0.72808880  0.99807214  0.34195148    -0.00500
C976        C  0.69691182  0.00366893  0.36457782    -0.23400
C977        C  0.67636095  0.00428189  0.33207306    -0.23600
C978        C  0.69541127  0.99808846  0.29053775    -0.00600
H979        H  0.68982732  0.00733655  0.40074592     0.13100
H980        H  0.65049790  0.00991123  0.33873795     0.13200
N981        N  0.92919265  0.69923343  0.24603627    -0.03100
C982        C  0.92876486  0.69885277  0.19969084    -0.00500
C983        C  0.92191485  0.72973809  0.17709905    -0.23400
C984        C  0.91826761  0.74995605  0.21028412    -0.23600
C985        C  0.92353801  0.73104101  0.25244054    -0.00600
H986        H  0.91858159  0.73659634  0.14069540     0.13100
H987        H  0.91095019  0.77541448  0.20381948     0.13200
N988        N  0.92619656  0.77600011  0.30142568    -0.03100
C989        C  0.92309030  0.77723818  0.34809321    -0.00500
C990        C  0.91724449  0.74650980  0.37387321    -0.23400
C991        C  0.91626830  0.72571217  0.34214266    -0.23600
C992        C  0.92228185  0.74414460  0.29749557    -0.00600
H993        H  0.91405385  0.73981542  0.41176545     0.13100
H994        H  0.91087951  0.70012011  0.35178903     0.13200
C995        C  0.53684201  0.98841728  0.10428011     0.42800
N996        N  0.50778922  0.97329508  0.05726024     0.01700
C997        C  0.90538227  0.57394745  0.42633428    -0.06200
H998        H  0.87923504  0.57454082  0.10556040     0.07200
C999        C  0.85432842  0.95599292  0.13487151    -0.06500
Co1000     Co  0.97767254  0.53119291  0.00183532     0.74200
N1001       N  0.91770382  0.55277482  0.06117643    -0.25700
Co1002     Co  0.89339296  0.52684259  0.02336336     0.74100
C1003       C  0.83992224  0.98524246  0.15327978     0.42900
N1004       N  0.92804563  0.91745513  0.08970622     0.01300
N1005       N  0.87022926  0.49945628  0.08603244     0.01400
N1006       N  0.96050931  0.57620378  0.41411295    -0.46600
H1007       H  0.52336617  0.54272586  0.08134180     0.07500
N1008       N  0.94977151  0.55544740  0.05278052     0.01700
N1009       N  0.86997436  0.49996073  0.48572482     0.01400
C1010       C  0.83968622  0.98593240  0.43968326     0.43000
N1011       N  0.96030051  0.91863022  0.08088276    -0.25200
C1012       C  0.52428444  0.51909116  0.41129829    -0.06100
N1013       N  0.52741868  0.96210616  0.08834429    -0.46300
N1014       N  0.85098702  0.51178504  0.45430968    -0.46500
C1015       C  0.53938849  0.99093422  0.39091636     0.42800
N1016       N  0.94969651  0.55565872  0.45284822     0.01700
N1017       N  0.95859139  0.92034209  0.48072565    -0.25200
N1018       N  0.50421193  0.50544237  0.05128528    -0.25700
N1019       N  0.92633564  0.91939244  0.48990275     0.01300
H1020       H  0.99454978  0.89553430  0.43598972     0.07200
H1021       H  0.84766901  0.93115133  0.46790441     0.07200
N1022       N  0.91748910  0.55395900  0.46104715    -0.25700
N1023       N  0.87277460  0.96725554  0.09346944    -0.25300
N1024       N  0.50759130  0.97431302  0.45637229     0.01700
C1025       C  0.93290977  0.58827898  0.10176535     0.43100
C1026       C  0.97251907  0.89798020  0.11488017    -0.06600
N1027       N  0.87162788  0.96778505  0.49337711    -0.25300
H1028       H  0.85048641  0.93049310  0.14933144     0.07200
N1029       N  0.96000074  0.57667448  0.07627760    -0.46600
H1030       H  0.99826437  0.89407035  0.11690247     0.07200
C1031       C  0.93929749  0.88916769  0.43628829     0.42900
C1032       C  0.52129833  0.51710585  0.07963468    -0.06100
Co1033     Co  0.98432940  0.94608315  0.01863315     0.73800
N1034       N  0.91731492  0.89656688  0.12803396    -0.46300
C1035       C  0.93406048  0.58887842  0.39504766     0.43200
N1036       N  0.52825315  0.96400357  0.42157096    -0.46300
Co1037     Co  0.89934321  0.94242750  0.04205273     0.73900
C1038       C  0.85294222  0.95657442  0.46633231    -0.06600
C1039       C  0.90501720  0.57178338  0.09256928    -0.06200
N1040       N  0.50491213  0.50649555  0.45093022    -0.25700
N1041       N  0.85074571  0.51109800  0.12061351    -0.46500
H1042       H  0.87964549  0.57918544  0.42517551     0.07200
C1043       C  0.96916533  0.90160775  0.44760261    -0.06600
Cl1044     Cl  0.93871167  0.98662326  0.02149055    -0.49600
C1045       C  0.94384083  0.88293726  0.14604719     0.42900
H1046       H  0.52958134  0.54473525  0.40134894     0.07200
N1047       N  0.91400157  0.90110672  0.46442620    -0.46300
C1048       C  0.95380231  0.82659069  0.35241562    -0.08800
C1049       C  0.92649119  0.80680900  0.36907923     0.07400
C1050       C  0.90318866  0.81509851  0.40645648    -0.02600
C1051       C  0.90808051  0.84194507  0.42733689    -0.07000
C1052       C  0.93579456  0.86136896  0.41162698     0.06500
C1053       C  0.95838925  0.85395991  0.37279200    -0.02100
Br1054     Br  0.49447944  0.88123282  0.34350304    -0.01800
H1055       H  0.97183272  0.82066003  0.32354377     0.10400
H1056       H  0.88992947  0.84753495  0.45632150     0.08400
Br1057     Br  0.86318581  0.79197699  0.42906808    -0.02200
C1058       C  0.96100109  0.80560146  0.23213052    -0.08800
C1059       C  0.93166902  0.80368215  0.26408165     0.07400
C1060       C  0.90732121  0.82822366  0.25773907    -0.02600
C1061       C  0.91253343  0.85406182  0.22005262    -0.07000
C1062       C  0.94162079  0.85595488  0.18722949     0.06500
C1063       C  0.96599337  0.83100043  0.19350446    -0.02100
Br1064     Br  0.50487832  0.82732245  0.14875550    -0.01800
H1065       H  0.97951951  0.78639472  0.23635341     0.10400
H1066       H  0.89323770  0.87245979  0.21580634     0.08400
Br1067     Br  0.86542768  0.82600986  0.29721647    -0.02200
C1068       C  0.90571005  0.62392170  0.33443383    -0.08800
C1069       C  0.93428169  0.61667231  0.35498818     0.07400
C1070       C  0.96169475  0.63688093  0.33749394    -0.02600
C1071       C  0.95955188  0.66381125  0.30183206    -0.07000
C1072       C  0.93102377  0.67078464  0.28167346     0.06500
C1073       C  0.90397621  0.65051960  0.29821039    -0.02100
Br1074     Br  0.86339963  0.65975703  0.27453561    -0.01800
H1075       H  0.88437224  0.60900598  0.34670122     0.10400
H1076       H  0.98024127  0.67965821  0.28979341     0.08400
Br1077     Br  0.00266551  0.63045472  0.36088982    -0.02200
C1078       C  0.95828053  0.62190235  0.14865470    -0.08800
C1079       C  0.93194392  0.61700874  0.12594799     0.07400
C1080       C  0.90556710  0.64008869  0.12627693    -0.02600
C1081       C  0.90459736  0.66530561  0.15258894    -0.07000
C1082       C  0.93031416  0.66958168  0.17657428     0.06500
C1083       C  0.95803265  0.64845126  0.17278955    -0.02100
Br1084     Br  0.99763944  0.65711127  0.19401761    -0.01800
H1085       H  0.97945290  0.60541465  0.14676668     0.10400
H1086       H  0.88404291  0.68259009  0.15285681     0.08400
Br1087     Br  0.87244803  0.64227653  0.08666931    -0.02200
C1088       C  0.77906168  0.96865148  0.36223957    -0.08800
C1089       C  0.75766625  0.99587109  0.36472674     0.07400
C1090       C  0.76419985  0.02004901  0.39033446    -0.02600
C1091       C  0.79106514  0.01614498  0.41411188    -0.07000
C1092       C  0.81212159  0.98855987  0.41274910     0.06500
C1093       C  0.80636891  0.96496866  0.38545927    -0.02100
Br1094     Br  0.83565625  0.92850573  0.37548935    -0.01800
H1095       H  0.77439852  0.94999513  0.34242658     0.10400
H1096       H  0.79534892  0.03488340  0.43404493     0.08400
Br1097     Br  0.73841123  0.05977895  0.39238676    -0.02200
C1098       C  0.79101462  0.96062372  0.20785127    -0.08800
C1099       C  0.81230576  0.98703066  0.19274350     0.07400
C1100       C  0.80611946  0.01504887  0.21494642    -0.02600
C1101       C  0.77819937  0.01696537  0.24892294    -0.07000
C1102       C  0.75622433  0.99120930  0.26217595     0.06500
C1103       C  0.76339473  0.96246947  0.24244341    -0.02100
Br1104     Br  0.73621341  0.92520025  0.26233718    -0.01800
H1105       H  0.79542638  0.93860161  0.19221863     0.10400
H1106       H  0.77350290  0.53869316  0.26525331     0.08400
Br1107     Br  0.83569238  0.55072966  0.20273777    -0.02200
C1108       C  0.58810164  0.46342229  0.34873752    -0.08800
C1109       C  0.56677764  0.99098463  0.35036602     0.07400
C1110       C  0.57257048  0.01793220  0.31329031    -0.02600
C1111       C  0.60012532  0.01767922  0.27831512    -0.07000
C1112       C  0.62196582  0.99077375  0.27815681     0.06500
C1113       C  0.61523664  0.46309298  0.31284840    -0.02100
Br1114     Br  0.64263177  0.42455680  0.31197175    -0.01800
H1115       H  0.58394316  0.44211814  0.37578238     0.10400
H1116       H  0.60461419  0.03864700  0.25074713     0.08400
Br1117     Br  0.54310454  0.05495594  0.30492518    -0.02200
C1118       C  0.60251654  0.96381986  0.18240125    -0.08800
C1119       C  0.61976912  0.99291886  0.17462222     0.07400
C1120       C  0.60922546  0.52030384  0.14507574    -0.02600
C1121       C  0.58210480  0.51821355  0.12323394    -0.07000
C1122       C  0.56497591  0.98898053  0.12976434     0.06500
C1123       C  0.57540159  0.96151239  0.16000950    -0.02100
Br1124     Br  0.55366970  0.92047371  0.17296318    -0.01800
H1125       H  0.61057104  0.94265355  0.20525104     0.10400
H1126       H  0.57497686  0.53968035  0.10025149     0.08400
Br1127     Br  0.63054092  0.56152006  0.13405610    -0.02200
N1128       N  0.65065854  0.49206678  0.74227704    -0.03100
C1129       C  0.64980919  0.49400761  0.69573046    -0.00500
C1130       C  0.68050693  0.99961720  0.66992587    -0.23400
C1131       C  0.70110058  0.00175376  0.70161803    -0.23600
C1132       C  0.68245580  0.99678669  0.74619735    -0.00600
H1133       H  0.68697303  0.00307915  0.63199871     0.13100
H1134       H  0.72653455  0.00797827  0.69193192     0.13200
N1135       N  0.72747173  0.99410284  0.79719191    -0.03100
C1136       C  0.72803557  0.99777416  0.84234600    -0.00500
C1137       C  0.69685192  0.00342745  0.86490154    -0.23400
C1138       C  0.67635106  0.00416170  0.83230637    -0.23600
C1139       C  0.69543724  0.99798593  0.79078722    -0.00600
H1140       H  0.68973089  0.00705511  0.90108114     0.13100
H1141       H  0.65049806  0.00984713  0.83891284     0.13200
N1142       N  0.92943126  0.69923155  0.74575654    -0.03100
C1143       C  0.92905544  0.69891447  0.69937952    -0.00500
C1144       C  0.92218835  0.72981685  0.67685624    -0.23400
C1145       C  0.91848516  0.74998351  0.71011232    -0.23600
C1146       C  0.92374716  0.73102550  0.75224046    -0.00600
H1147       H  0.91888883  0.73672133  0.64044525     0.13100
H1148       H  0.91114432  0.77543898  0.70371131     0.13200
N1149       N  0.92636356  0.77592475  0.80138518    -0.03100
C1150       C  0.92334003  0.77705438  0.84808390    -0.00500
C1151       C  0.91757471  0.74628021  0.87374933    -0.23400
C1152       C  0.91654808  0.72556384  0.84193862    -0.23600
C1153       C  0.92248430  0.74407674  0.79734262    -0.00600
H1154       H  0.91446522  0.73949964  0.91162525     0.13100
H1155       H  0.91117541  0.69996626  0.85151376     0.13200
C1156       C  0.53734483  0.98840422  0.60364461     0.42800
N1157       N  0.50786136  0.97323137  0.55719848     0.01700
C1158       C  0.90543476  0.57387108  0.92603565    -0.06200
H1159       H  0.87953692  0.57450161  0.60591295     0.07200
C1160       C  0.85418078  0.95593715  0.63486323    -0.06500
Co1161     Co  0.97773518  0.53110735  0.50176619     0.74200
N1162       N  0.91787376  0.55269557  0.56135267    -0.25700
Co1163     Co  0.89339866  0.52687993  0.52357048     0.74100
C1164       C  0.83981909  0.98514719  0.65340350     0.42900
N1165       N  0.92790731  0.91748082  0.58976160     0.01300
N1166       N  0.87019653  0.49946599  0.58623099     0.01400
N1167       N  0.96054728  0.57627558  0.91408664    -0.46600
H1168       H  0.52399856  0.54272537  0.58051433     0.07500
N1169       N  0.94994519  0.55536292  0.55277483     0.01700
N1170       N  0.87010100  0.49979894  0.98555407     0.01400
C1171       C  0.83981787  0.98563456  0.93962564     0.43000
N1172       N  0.96016363  0.91868864  0.58099909    -0.25200
C1173       C  0.52429414  0.51930445  0.91138629    -0.06100
N1174       N  0.52768135  0.96206282  0.58802885    -0.46300
N1175       N  0.85112186  0.51154203  0.95410449    -0.46500
C1176       C  0.53940587  0.99119530  0.89088515     0.42800
N1177       N  0.94970268  0.55571842  0.95279434     0.01700
N1178       N  0.95871191  0.92033245  0.98064950    -0.25200
N1179       N  0.50438432  0.50538856  0.55109257    -0.25700
N1180       N  0.92646053  0.91928781  0.98993417     0.01300
H1181       H  0.99468450  0.89543317  0.93604360     0.07200
H1182       H  0.84778859  0.93089677  0.96808475     0.07200
N1183       N  0.91750194  0.55393049  0.96084014    -0.25700
N1184       N  0.87267281  0.96726080  0.59353065    -0.25300
N1185       N  0.50763337  0.97446632  0.95634708     0.01700
C1186       C  0.93325847  0.58817022  0.60183302     0.43100
C1187       C  0.97236144  0.89816619  0.61513521    -0.06600
N1188       N  0.87175024  0.96762734  0.99334993    -0.25300
H1189       H  0.85029153  0.93042480  0.64919711     0.07200
N1190       N  0.96027771  0.57657253  0.57619958    -0.46600
H1191       H  0.99810004  0.89432574  0.61725612     0.07200
C1192       C  0.93943961  0.88889629  0.93654514     0.42900
C1193       C  0.52176278  0.51709031  0.57905679    -0.06100
Co1194     Co  0.98425857  0.94603173  0.51870199     0.73800
N1195       N  0.91716109  0.89667336  0.62818519    -0.46300
C1196       C  0.93413322  0.58887517  0.89486994     0.43200
N1197       N  0.52828057  0.96422638  0.92147513    -0.46300
Co1198     Co  0.89922533  0.94248993  0.54206536     0.73900
C1199       C  0.85306952  0.95633266  0.96638350    -0.06600
C1200       C  0.90529877  0.57168551  0.59282294    -0.06200
N1201       N  0.50494613  0.50664383  0.95101115    -0.25700
N1202       N  0.85070292  0.51105511  0.62085817    -0.46500
H1203       H  0.87970336  0.57903960  0.92474163     0.07200
C1204       C  0.96929694  0.90150220  0.94764971    -0.06600
Cl1205     Cl  0.93868629  0.98661026  0.52155243    -0.49600
C1206       C  0.94368351  0.88313799  0.64631030     0.42900
H1207       H  0.52954044  0.54496127  0.90150319     0.07200
N1208       N  0.91413921  0.90083781  0.96466561    -0.46300
C1209       C  0.95393370  0.82647534  0.85245643    -0.08800
C1210       C  0.92673226  0.80656155  0.86922474     0.07400
C1211       C  0.90352086  0.81467104  0.90683336    -0.02600
C1212       C  0.90839593  0.84148426  0.92780358    -0.07000
C1213       C  0.93598151  0.86106647  0.91192517     0.06500
C1214       C  0.95847818  0.85382538  0.87289511    -0.02100
Br1215     Br  0.49432869  0.88134858  0.84338666    -0.01800
H1216       H  0.97189739  0.82068355  0.82342237     0.10400
H1217       H  0.89032026  0.84694971  0.95694968     0.08400
Br1218     Br  0.86362509  0.79138697  0.92959412    -0.02200
C1219       C  0.96099111  0.80564546  0.73199103    -0.08800
C1220       C  0.93174688  0.80368479  0.76412850     0.07400
C1221       C  0.90740812  0.82828398  0.75806919    -0.02600
C1222       C  0.91253277  0.85419206  0.72044836    -0.07000
C1223       C  0.94152080  0.85610208  0.68742848     0.06500
C1224       C  0.96588319  0.83110487  0.69343560    -0.02100
Br1225     Br  0.50458983  0.82743666  0.64835346    -0.01800
H1226       H  0.97950607  0.78641161  0.73599263     0.10400
H1227       H  0.89325152  0.87263155  0.71640462     0.08400
Br1228     Br  0.86564380  0.82608290  0.79788126    -0.02200
C1229       C  0.90591327  0.62381375  0.83397378    -0.08800
C1230       C  0.93440008  0.61665054  0.85475793     0.07400
C1231       C  0.96178427  0.63692638  0.83743062    -0.02600
C1232       C  0.95969519  0.66383060  0.80170893    -0.07000
C1233       C  0.93124340  0.67074016  0.78134611     0.06500
C1234       C  0.90422790  0.65040134  0.79770620    -0.02100
Br1235     Br  0.86374233  0.65952497  0.77374421    -0.01800
H1236       H  0.88460071  0.60884510  0.84610977     0.10400
H1237       H  0.98035557  0.67973132  0.78981804     0.08400
Br1238     Br  0.00262785  0.63066309  0.86119022    -0.02200
C1239       C  0.95863799  0.62189177  0.64856436    -0.08800
C1240       C  0.93235997  0.61700987  0.62574329     0.07400
C1241       C  0.90606733  0.64017535  0.62575764    -0.02600
C1242       C  0.90507087  0.66545220  0.65196296    -0.07000
C1243       C  0.93068833  0.66968240  0.67616212     0.06500
C1244       C  0.95837025  0.64848876  0.67260697    -0.02100
Br1245     Br  0.99790854  0.65709924  0.69405425    -0.01800
H1246       H  0.97976201  0.60533668  0.64688120     0.10400
H1247       H  0.88455747  0.68278239  0.65203889     0.08400
Br1248     Br  0.87309986  0.64232831  0.58590758    -0.02200
C1249       C  0.77895743  0.96826425  0.86263528    -0.08800
C1250       C  0.75757493  0.99549003  0.86519623     0.07400
C1251       C  0.76412262  0.01962960  0.89085851    -0.02600
C1252       C  0.79103719  0.01572328  0.91451339    -0.07000
C1253       C  0.81212827  0.98817906  0.91297562     0.06500
C1254       C  0.80631170  0.96457606  0.88575074    -0.02100
Br1255     Br  0.83557499  0.92810148  0.87573322    -0.01800
H1256       H  0.77426303  0.94962589  0.84281040     0.10400
H1257       H  0.79535109  0.03444743  0.93445315     0.08400
Br1258     Br  0.73832738  0.05933989  0.89311805    -0.02200
C1259       C  0.79091374  0.96049147  0.70797231    -0.08800
C1260       C  0.81225184  0.98687175  0.69296324     0.07400
C1261       C  0.80617607  0.01479561  0.71538677    -0.02600
C1262       C  0.77829737  0.01667799  0.74944982    -0.07000
C1263       C  0.75625461  0.99097316  0.76257372     0.06500
C1264       C  0.76333938  0.96229498  0.74265941    -0.02100
Br1265     Br  0.73605300  0.92508635  0.76234821    -0.01800
H1266       H  0.79524549  0.93853252  0.69217651     0.10400
H1267       H  0.77367005  0.53834979  0.76591816     0.08400
Br1268     Br  0.83584420  0.55038803  0.70333042    -0.02200
C1269       C  0.58796526  0.46359160  0.84856272    -0.08800
C1270       C  0.56681407  0.99127072  0.85033654     0.07400
C1271       C  0.57278870  0.01829378  0.81340121    -0.02600
C1272       C  0.60034581  0.01796075  0.77842523    -0.07000
C1273       C  0.62200907  0.99091809  0.77814621     0.06500
C1274       C  0.61509583  0.46319528  0.81269211    -0.02100
Br1275     Br  0.64223517  0.42450020  0.81162811    -0.01800
H1276       H  0.58367171  0.44223174  0.87547916     0.10400
H1277       H  0.60498045  0.03897226  0.75096495     0.08400
Br1278     Br  0.54358741  0.05554731  0.80521124    -0.02200
C1279       C  0.60284230  0.96374523  0.68208391    -0.08800
C1280       C  0.62002414  0.99286998  0.67454358     0.07400
C1281       C  0.60955910  0.52026350  0.64494495    -0.02600
C1282       C  0.58254808  0.51817372  0.62286309    -0.07000
C1283       C  0.56545404  0.98892801  0.62921291     0.06500
C1284       C  0.57584327  0.96143417  0.65945658    -0.02100
Br1285     Br  0.55423294  0.92033855  0.67209905    -0.01800
H1286       H  0.61086871  0.94255951  0.70492514     0.10400
H1287       H  0.57546566  0.53965442  0.59986747     0.08400
Br1288     Br  0.63086854  0.56147487  0.63417303    -0.02200
loop_ 
_geom_bond_atom_site_label_1 
_geom_bond_atom_site_label_2 
_geom_bond_distance 
_geom_bond_site_symmetry_2 
_ccdc_geom_bond_type 
N1            C2   1.353       .  A
N1          C327   1.367       .  A
N1          C468   1.445       .  S
C2          C325   1.377       .  A
C2          C475   1.474       .  S
C3            C4   1.373       .  A
C3          C324   1.377       .  A
C3            H6   1.082       .  S
C4            C5   1.389       .  A
C4            H7   1.078       .  S
C5          N323   1.367       .  A
C5           C12   1.496       .  S
N8           C12   1.367       .  A
N8            C9   1.356       .  A
N8          C136   1.446       .  S
C9           C10   1.377       .  A
C9          C123   1.478       .  S
C10          C11   1.370       .  A
C10          H13   1.082       .  S
C11          C12   1.388       .  A
C11          H14   1.077       .  S
N15          C19   1.367       .  A
N15          C16   1.358       .  A
N15         C106   1.445       .  S
C16          C17   1.378       .  A
C16         C116   1.478       .  S
C17          C18   1.369       .  A
C17          H20   1.082       .  S
C18          C19   1.387       .  A
C18          H21   1.078       .  S
C19          C26   1.497       .  S
N22          C26   1.366       .  A
N22          C23   1.356       .  A
N22          C93   1.445       .  S
C23          C24   1.379       .  A
C23          C83   1.482       .  S
C24          C25   1.374       .  A
C24          H27   1.082       .  S
C25          C26   1.388       .  A
C25          H28   1.078       .  S
C29          N47   1.354       .  A
C29         C156   1.484       .  S
C29         C388   1.461       .  S
N30          N47   1.327       .  A
N30         N374   1.320       .  A
N30        Co711   2.094   1_455  S
C31          N56   1.345       .  A
C31          C69   1.470       .  S
C31          H76   1.081       .  S
H32          C73   1.080       .  S
C33          N57   1.345       .  A
C33          C37   1.468       .  S
C33          H62   1.081       .  S
Co34         N42   2.092       .  S
Co34        N696   2.077       .  S
Co34        N879   2.086   1_554  S
Co34        N211   2.088   1_554  S
Co34       Cl400   2.450   1_545  S
N35          C73   1.333       .  A
N35          N42   1.317       .  A
N35         Co36   2.064       .  S
Co36         N39   2.098   1_545  S
Co36        N217   2.104   1_554  S
Co36        N204   2.069   1_544  S
Co36       Cl400   2.446   1_545  S
C37         N397   1.353       .  A
C37         C133   1.493       .  S
N38          N45   1.320       .  A
N38          N68   1.324       .  A
N38         Co71   2.086       .  S
N39          N75   1.326   1_565  A
N39         N379   1.319       .  A
N40          C69   1.352       .  A
N40          N50   1.326       .  A
H41          C66   1.081       .  S
N42          N63   1.327       .  A
N43          N48   1.321   1_565  A
N43         N383   1.317       .  A
N43        Co197   2.070   1_565  S
C44         N370   1.350       .  A
C44          C72   1.464       .  S
C44         C126   1.478       .  S
N45          C60   1.345       .  A
N45         Co67   2.103       .  S
C46          N74   1.339       .  A
C46         C371   1.464   1_545  S
C46          H80   1.079       .  S
N48         C366   1.350   1_545  A
C49          N70   1.359       .  A
C49         C143   1.499       .  S
C49         C368   1.464       .  S
N50          N56   1.319       .  A
N50        Co195   2.087       .  S
N51          C77   1.344       .  A
N51          N53   1.320       .  A
N51        Co228   2.096       .  S
N52          C66   1.334       .  A
N52         N352   1.320   1_545  A
N52        Co678   2.077   1_455  S
N53          N81   1.320       .  A
N53        Co232   2.076       .  S
H54          C77   1.080       .  S
H55          C72   1.080       .  S
N56        Co197   2.103       .  S
N57         N361   1.319       .  A
N57         Co71   2.093       .  S
N58          N70   1.330       .  A
N58         N396   1.319       .  A
N58        Co872   2.109   1_455  S
C59          N63   1.354       .  A
C59          C73   1.456       .  S
C59         C113   1.479       .  S
C60          C79   1.470       .  S
C60          H64   1.080       .  S
N61          C72   1.341       .  A
N61         N365   1.317       .  A
N61        Co232   2.082       .  S
C65          N81   1.348       .  A
C65          C77   1.470       .  S
C65          C86   1.483       .  S
C66         C351   1.461   1_545  S
Co67        N674   2.094       .  S
Co67        N212   2.096   1_554  S
Co67        N863   2.110   1_554  S
Co67        Cl78   2.464       .  S
N68          C79   1.352       .  A
C69         C103   1.498       .  S
Co71        N214   2.077   1_554  S
Co71        N222   2.081   1_554  S
Co71        Cl78   2.450       .  S
N74         N380   1.319   1_545  A
N74        Co839   2.086   1_455  S
N75         C359   1.353   1_545  A
Cl78       Co356   2.450       .  S
Cl78       Co358   2.446       .  S
C79          C96   1.494       .  S
C82          C83   1.404       .  A
C82          C87   1.402       .  A
C82          H89   1.083       .  S
C83          C84   1.409       .  A
C84          C85   1.394       .  A
C84         Br91   1.922       .  S
C85          C86   1.406       .  A
C85          H90   1.083       .  S
C86          C87   1.412       .  A
C87        Br732   1.918       .  S
Br88        C731   1.918       .  S
C92          C93   1.402       .  A
C92          C97   1.405       .  A
C92          H99   1.083       .  S
C93          C94   1.407       .  A
C94          C95   1.399       .  A
C94        Br101   1.916       .  S
C95          C96   1.408       .  A
C95         H100   1.083       .  S
C96          C97   1.419       .  A
C97        Br742   1.917       .  S
Br98        C741   1.917   1_455  S
C102        C103   1.409       .  A
C102        C107   1.403       .  A
C102        H109   1.082       .  S
C103        C104   1.421       .  A
C104        C105   1.404       .  A
C104       Br111   1.920       .  S
C105        C106   1.400       .  A
C105        H110   1.083       .  S
C106        C107   1.407       .  A
C107       Br108   1.916       .  S
C112        C113   1.405       .  A
C112        C117   1.402       .  A
C112        H119   1.084       .  S
C113        C114   1.415       .  A
C114        C115   1.393       .  A
C114       Br121   1.922       .  S
C115        C116   1.400       .  A
C115        H120   1.084       .  S
C116        C117   1.409       .  A
C117       Br118   1.916       .  S
C122        C123   1.403       .  A
C122        C127   1.400       .  A
C122        H129   1.083       .  S
C123        C124   1.408       .  A
C124        C125   1.393       .  A
C124       Br131   1.921       .  S
C125        C126   1.404       .  A
C125        H130   1.083       .  S
C126        C127   1.413       .  A
C127       Br128   1.920       .  S
C132        C133   1.409       .  A
C132        C137   1.404       .  A
C132        H139   1.082       .  S
C133        C134   1.415       .  A
C134        C135   1.403       .  A
C134       Br463   1.920       .  S
C135        C136   1.403       .  A
C135        H462   1.083       .  S
C136        C137   1.407       .  A
C137       Br138   1.914       .  S
H140        C457   1.083       .  S
Br141       C456   1.920       .  S
C142        C147   1.406       .  A
C142        C465   1.410       .  A
C142        H149   1.083       .  S
C143        C144   1.420       .  A
C143        C464   1.410       .  A
C144        C145   1.402       .  A
C144       Br151   1.920       .  S
C145        C146   1.400       .  A
C145        H150   1.083       .  S
C146        N323   1.445       .  S
C146        C469   1.405       .  A
C147        C468   1.405       .  A
C147       Br148   1.913       .  S
C152        C153   1.402       .  A
C152        C157   1.403       .  A
C152        H159   1.084       .  S
C153        C476   1.404       .  A
C153        C324   1.474       .  S
C154        C155   1.392       .  A
C154        C475   1.404   1_545  A
C154       Br161   1.920       .  S
C155        C478   1.407   1_545  A
C155        H160   1.081       .  S
C156        C157   1.415       .  A
C156        C477   1.407       .  A
C157       Br158   1.920       .  S
N162        C488   1.367       .  A
N162        C163   1.353       .  A
N162        C629   1.445       .  S
C163        C486   1.377       .  A
C163        C636   1.473       .  S
C164        C485   1.377       .  A
C164        C165   1.372       .  A
C164        H167   1.082       .  S
C165        C166   1.389       .  A
C165        H168   1.078       .  S
C166        N484   1.367       .  A
C166        C173   1.496       .  S
N169        C173   1.367       .  A
N169        C170   1.356       .  A
N169        C297   1.446       .  S
C170        C171   1.377       .  A
C170        C284   1.478       .  S
C171        C172   1.370       .  A
C171        H174   1.082       .  S
C172        C173   1.388       .  A
C172        H175   1.077       .  S
N176        C180   1.367       .  A
N176        C177   1.358       .  A
N176        C267   1.445       .  S
C177        C178   1.378       .  A
C177        C277   1.478       .  S
C178        C179   1.369       .  A
C178        H181   1.082       .  S
C179        C180   1.387       .  A
C179        H182   1.078       .  S
C180        C187   1.497       .  S
N183        C187   1.366       .  A
N183        C184   1.356       .  A
N183        C254   1.445       .  S
C184        C185   1.379       .  A
C184        C244   1.483       .  S
C185        C186   1.373       .  A
C185        H188   1.082       .  S
C186        C187   1.388       .  A
C186        H189   1.077       .  S
C190        N208   1.354       .  A
C190        C549   1.461       .  S
C190        C317   1.485       .  S
N191        N208   1.327       .  A
N191        N535   1.320       .  A
N191       Co872   2.095   1_455  S
C192        N217   1.345       .  A
C192        C230   1.470       .  S
C192        H237   1.081       .  S
H193        C234   1.080       .  S
C194        N218   1.345       .  A
C194        C198   1.468       .  S
C194        H223   1.081       .  S
Co195       N857   2.077       .  S
Co195       N203   2.091       .  S
Co195       N718   2.086       .  S
Co195      Cl561   2.451   1_545  S
N196        C234   1.333       .  A
N196        N203   1.317       .  A
N196       Co197   2.065       .  S
Co197       N200   2.099   1_545  S
Co197      Cl561   2.446   1_545  S
C198        N558   1.353       .  A
C198        C294   1.493       .  S
N199        N206   1.320       .  A
N199        N229   1.324       .  A
N199       Co232   2.087       .  S
N200        N540   1.319       .  A
N200        N236   1.326   1_565  A
N201        C230   1.352       .  A
N201        N211   1.326       .  A
H202        C227   1.081       .  S
N203        N224   1.327       .  A
N204        N544   1.316       .  A
N204        N209   1.321   1_565  A
C205        N531   1.350       .  A
C205        C233   1.464       .  S
C205        C287   1.477       .  S
N206        C221   1.345       .  A
N206       Co228   2.103       .  S
C207        N235   1.339       .  A
C207        C532   1.464   1_545  S
C207        H241   1.079       .  S
N209        C527   1.350   1_545  A
C210        N231   1.359       .  A
C210        C529   1.464       .  S
C210        C304   1.499       .  S
N211        N217   1.319       .  A
N212        C238   1.344       .  A
N212        N214   1.320       .  A
N213        C227   1.334       .  A
N213        N513   1.320   1_545  A
N213       Co839   2.077   1_455  S
N214        N242   1.320       .  A
H215        C238   1.081       .  S
H216        C233   1.080       .  S
N218        N522   1.319       .  A
N218       Co232   2.092       .  S
N219        N231   1.330       .  A
N219        N557   1.319       .  A
N219       Co711   2.110   1_456  S
C220        N224   1.354       .  A
C220        C234   1.456       .  S
C220        C274   1.479       .  S
C221        C240   1.470       .  S
C221        H225   1.080       .  S
N222        C233   1.341       .  A
N222        N526   1.316       .  A
C226        N242   1.348       .  A
C226        C238   1.470       .  S
C226        C247   1.483       .  S
C227        C512   1.461   1_545  S
Co228       N835   2.095       .  S
Co228       N702   2.109       .  S
Co228      Cl239   2.463       .  S
N229        C240   1.352       .  A
C230        C264   1.498       .  S
Co232      Cl239   2.450       .  S
N235        N541   1.319   1_545  A
N235       Co678   2.086   1_456  S
N236        C520   1.353   1_545  A
Cl239      Co517   2.451       .  S
Cl239      Co519   2.446       .  S
C240        C257   1.494       .  S
C243        C244   1.404       .  A
C243        C248   1.401       .  A
C243        H250   1.083       .  S
C244        C245   1.409       .  A
C245        C246   1.394       .  A
C245       Br252   1.922       .  S
C246        C247   1.406       .  A
C246        H251   1.083       .  S
C247        C248   1.412       .  A
C248       Br893   1.918       .  S
Br249       C892   1.918       .  S
C253        C254   1.402       .  A
C253        C258   1.405       .  A
C253        H260   1.083       .  S
C254        C255   1.407       .  A
C255        C256   1.400       .  A
C255       Br262   1.916       .  S
C256        C257   1.408       .  A
C256        H261   1.083       .  S
C257        C258   1.419       .  A
C258       Br903   1.917       .  S
Br259       C902   1.917   1_455  S
C263        C264   1.409       .  A
C263        C268   1.403       .  A
C263        H270   1.082       .  S
C264        C265   1.421       .  A
C265        C266   1.404       .  A
C265       Br272   1.920       .  S
C266        C267   1.400       .  A
C266        H271   1.083       .  S
C267        C268   1.407       .  A
C268       Br269   1.916       .  S
C273        C274   1.405       .  A
C273        C278   1.402       .  A
C273        H280   1.084       .  S
C274        C275   1.414       .  A
C275        C276   1.393       .  A
C275       Br282   1.922       .  S
C276        C277   1.400       .  A
C276        H281   1.084       .  S
C277        C278   1.409       .  A
C278       Br279   1.916       .  S
C283        C284   1.403       .  A
C283        C288   1.400       .  A
C283        H290   1.083       .  S
C284        C285   1.408       .  A
C285        C286   1.393       .  A
C285       Br292   1.921       .  S
C286        C287   1.404       .  A
C286        H291   1.083       .  S
C287        C288   1.413       .  A
C288       Br289   1.920       .  S
C293        C294   1.409       .  A
C293        C298   1.404       .  A
C293        H300   1.082       .  S
C294        C295   1.415       .  A
C295        C296   1.403       .  A
C295       Br624   1.920       .  S
C296        C297   1.403       .  A
C296        H623   1.083       .  S
C297        C298   1.407       .  A
C298       Br299   1.914       .  S
H301        C618   1.083       .  S
Br302       C617   1.920       .  S
C303        C626   1.410       .  A
C303        C308   1.406       .  A
C303        H310   1.083       .  S
C304        C625   1.410       .  A
C304        C305   1.421       .  A
C305        C306   1.402       .  A
C305       Br312   1.920       .  S
C306        C307   1.400       .  A
C306        H311   1.083       .  S
C307        N484   1.445       .  S
C307        C630   1.405       .  A
C308        C629   1.405       .  A
C308       Br309   1.913       .  S
C313        C314   1.402       .  A
C313        C318   1.403       .  A
C313        H320   1.084       .  S
C314        C637   1.403       .  A
C314        C485   1.473       .  S
C315        C636   1.403   1_545  A
C315        C316   1.392       .  A
C315       Br322   1.921       .  S
C316        C639   1.407   1_545  A
C316        H321   1.081       .  S
C317        C638   1.407       .  A
C317        C318   1.415       .  A
C318       Br319   1.920       .  S
N323        C324   1.353       .  A
C325        C326   1.373   1_565  A
C325        H328   1.082   1_565  S
C326        C327   1.389   1_545  A
C326        H329   1.078       .  S
C327        C334   1.496       .  S
N330        C334   1.367       .  A
N330        C331   1.356       .  A
N330        C458   1.446       .  S
C331        C332   1.377   1_565  A
C331        C445   1.478       .  S
C332        C333   1.370       .  A
C332        H335   1.082       .  S
C333        C334   1.388   1_545  A
C333        H336   1.077       .  S
N337        C341   1.367       .  A
N337        C338   1.358       .  A
N337        C428   1.445       .  S
C338        C339   1.378       .  A
C338        C438   1.478       .  S
C339        C340   1.369       .  A
C339        H342   1.082       .  S
C340        C341   1.387       .  A
C340        H343   1.078       .  S
C341        C348   1.497       .  S
N344        C348   1.366       .  A
N344        C345   1.356       .  A
N344        C415   1.445       .  S
C345        C346   1.379       .  A
C345        C405   1.482       .  S
C346        C347   1.374       .  A
C346        H349   1.082       .  S
C347        C348   1.388       .  A
C347        H350   1.078       .  S
C351        N369   1.354       .  A
C351        C478   1.484       .  S
N352        N369   1.327       .  A
N352      Co1033   2.094   1_455  S
C353        N378   1.345       .  A
C353        C391   1.470       .  S
C353        H398   1.081       .  S
H354        C395   1.080       .  S
C355        N379   1.345       .  A
C355        C359   1.468       .  S
C355        H384   1.081       .  S
Co356      N1018   2.077       .  S
Co356       N364   2.092       .  S
Co356      N1201   2.086   1_554  S
Co356       N533   2.088   1_554  S
N357        C395   1.333       .  A
N357        N364   1.317       .  A
N357       Co358   2.064       .  S
Co358       N361   2.098       .  S
Co358       N539   2.104   1_554  S
Co358       N526   2.069   1_554  S
C359        C455   1.493       .  S
N360        N367   1.320       .  A
N360        N390   1.324       .  A
N360       Co393   2.086       .  S
N361        N397   1.326       .  A
N362        C391   1.352       .  A
N362        N372   1.326       .  A
H363        C388   1.081       .  S
N364        N385   1.327       .  A
N365        N370   1.321       .  A
N365       Co519   2.070       .  S
C366        C394   1.464       .  S
C366        C448   1.478       .  S
N367        C382   1.345       .  A
N367       Co389   2.103       .  S
C368        N396   1.339       .  A
C368        H402   1.079       .  S
C371        N392   1.359       .  A
C371        C465   1.499       .  S
N372        N378   1.319       .  A
N372       Co517   2.087       .  S
N373        C399   1.344       .  A
N373        N375   1.320       .  A
N373       Co550   2.096       .  S
N374        C388   1.334       .  A
N374      Co1000   2.077   1_455  S
N375        N403   1.320       .  A
N375       Co554   2.076       .  S
H376        C399   1.080       .  S
H377        C394   1.080       .  S
N378       Co519   2.103       .  S
N379       Co393   2.093       .  S
N380        N392   1.330       .  A
N380      Co1194   2.109   1_455  S
C381        N385   1.354       .  A
C381        C395   1.456       .  S
C381        C435   1.479       .  S
C382        C401   1.470       .  S
C382        H386   1.080       .  S
N383        C394   1.341       .  A
N383       Co554   2.082       .  S
C387        N403   1.348       .  A
C387        C399   1.470       .  S
C387        C408   1.483       .  S
Co389       N996   2.094       .  S
Co389       N534   2.096   1_554  S
Co389      N1185   2.110   1_554  S
Co389      Cl400   2.464       .  S
N390        C401   1.352       .  A
C391        C425   1.498       .  S
Co393       N536   2.077   1_554  S
Co393       N544   2.081   1_554  S
Co393      Cl400   2.450       .  S
N396      Co1161   2.086   1_455  S
C401        C418   1.494       .  S
C404        C405   1.404       .  A
C404        C409   1.402       .  A
C404        H411   1.083       .  S
C405        C406   1.409       .  A
C406        C407   1.394       .  A
C406       Br413   1.922       .  S
C407        C408   1.406       .  A
C407        H412   1.083       .  S
C408        C409   1.412       .  A
C409      Br1054   1.918       .  S
Br410      C1053   1.918       .  S
C414        C415   1.402       .  A
C414        C419   1.405       .  A
C414        H421   1.083       .  S
C415        C416   1.407       .  A
C416        C417   1.399       .  A
C416       Br423   1.916       .  S
C417        C418   1.408       .  A
C417        H422   1.083       .  S
C418        C419   1.419       .  A
C419      Br1064   1.917       .  S
Br420      C1063   1.917   1_455  S
C424        C425   1.409       .  A
C424        C429   1.403       .  A
C424        H431   1.082       .  S
C425        C426   1.421       .  A
C426        C427   1.404       .  A
C426       Br433   1.920       .  S
C427        C428   1.400       .  A
C427        H432   1.083       .  S
C428        C429   1.407       .  A
C429       Br430   1.916       .  S
C434        C435   1.405       .  A
C434        C439   1.402       .  A
C434        H441   1.084       .  S
C435        C436   1.415       .  A
C436        C437   1.393       .  A
C436       Br443   1.922       .  S
C437        C438   1.400       .  A
C437        H442   1.084       .  S
C438        C439   1.409       .  A
C439       Br440   1.916       .  S
C444        C445   1.403       .  A
C444        C449   1.400       .  A
C444        H451   1.083       .  S
C445        C446   1.408   1_565  A
C446        C447   1.393       .  A
C446       Br453   1.921       .  S
C447        C448   1.404   1_545  A
C447        H452   1.083       .  S
C448        C449   1.413       .  A
C449       Br450   1.920       .  S
C454        C455   1.409       .  A
C454        C459   1.404       .  A
C454        H461   1.082       .  S
C455        C456   1.415   1_565  A
C456        C457   1.403       .  A
C457        C458   1.403   1_545  A
C458        C459   1.407       .  A
C459       Br460   1.914       .  S
C464        C469   1.406       .  A
C464        H471   1.083       .  S
C465        C466   1.420   1_565  A
C466        C467   1.402       .  A
C466       Br473   1.920       .  S
C467        C468   1.400   1_545  A
C467        H472   1.083       .  S
C469       Br470   1.913       .  S
C474        C475   1.402       .  A
C474        C479   1.403       .  A
C474        H481   1.084       .  S
C476        C477   1.392       .  A
C476       Br483   1.920       .  S
C477        H482   1.081       .  S
C478        C479   1.415       .  A
C479       Br480   1.920       .  S
N484        C485   1.353       .  A
C486        C487   1.372   1_565  A
C486        H489   1.082   1_565  S
C487        C488   1.389   1_545  A
C487        H490   1.078       .  S
C488        C495   1.496       .  S
N491        C495   1.367       .  A
N491        C492   1.356       .  A
N491        C619   1.446       .  S
C492        C493   1.377   1_565  A
C492        C606   1.478       .  S
C493        C494   1.370       .  A
C493        H496   1.082       .  S
C494        C495   1.388   1_545  A
C494        H497   1.077       .  S
N498        C502   1.367       .  A
N498        C499   1.358       .  A
N498        C589   1.445       .  S
C499        C500   1.378       .  A
C499        C599   1.478       .  S
C500        C501   1.369       .  A
C500        H503   1.082       .  S
C501        C502   1.387       .  A
C501        H504   1.078       .  S
C502        C509   1.497       .  S
N505        C509   1.366       .  A
N505        C506   1.356       .  A
N505        C576   1.445       .  S
C506        C507   1.379       .  A
C506        C566   1.483       .  S
C507        C508   1.373       .  A
C507        H510   1.082       .  S
C508        C509   1.388       .  A
C508        H511   1.077       .  S
C512        N530   1.354       .  A
C512        C639   1.485       .  S
N513        N530   1.327       .  A
N513      Co1194   2.095   1_455  S
C514        N539   1.345       .  A
C514        C552   1.470       .  S
C514        H559   1.081       .  S
H515        C556   1.080       .  S
C516        N540   1.345       .  A
C516        C520   1.468       .  S
C516        H545   1.081       .  S
Co517      N1179   2.077       .  S
Co517       N525   2.091       .  S
Co517      N1040   2.086       .  S
N518        C556   1.333       .  A
N518        N525   1.317       .  A
N518       Co519   2.065       .  S
Co519       N522   2.099       .  S
C520        C616   1.493       .  S
N521        N528   1.320       .  A
N521        N551   1.324       .  A
N521       Co554   2.087       .  S
N522        N558   1.326       .  A
N523        C552   1.352       .  A
N523        N533   1.326       .  A
H524        C549   1.081       .  S
N525        N546   1.327       .  A
N526        N531   1.321       .  A
C527        C555   1.464       .  S
C527        C609   1.477       .  S
N528        C543   1.345       .  A
N528       Co550   2.103       .  S
C529        N557   1.339       .  A
C529        H563   1.079       .  S
C532        N553   1.359       .  A
C532        C626   1.499       .  S
N533        N539   1.319       .  A
N534        C560   1.344       .  A
N534        N536   1.320       .  A
N535        C549   1.334       .  A
N535      Co1161   2.077   1_455  S
N536        N564   1.320       .  A
H537        C560   1.080       .  S
H538        C555   1.080       .  S
N540       Co554   2.092       .  S
N541        N553   1.330       .  A
N541      Co1033   2.110   1_456  S
C542        N546   1.354       .  A
C542        C556   1.456       .  S
C542        C596   1.479       .  S
C543        C562   1.470       .  S
C543        H547   1.080       .  S
N544        C555   1.341       .  A
C548        N564   1.348       .  A
C548        C560   1.470       .  S
C548        C569   1.483       .  S
Co550      N1157   2.095       .  S
Co550      N1024   2.109       .  S
Co550      Cl561   2.463       .  S
N551        C562   1.352       .  A
C552        C586   1.498       .  S
Co554      Cl561   2.450       .  S
N557      Co1000   2.086   1_456  S
C562        C579   1.494       .  S
C565        C566   1.404       .  A
C565        C570   1.401       .  A
C565        H572   1.083       .  S
C566        C567   1.409       .  A
C567        C568   1.394       .  A
C567       Br574   1.922       .  S
C568        C569   1.406       .  A
C568        H573   1.083       .  S
C569        C570   1.412       .  A
C570      Br1215   1.918       .  S
Br571      C1214   1.918       .  S
C575        C576   1.402       .  A
C575        C580   1.405       .  A
C575        H582   1.083       .  S
C576        C577   1.407       .  A
C577        C578   1.400       .  A
C577       Br584   1.916       .  S
C578        C579   1.408       .  A
C578        H583   1.083       .  S
C579        C580   1.419       .  A
C580      Br1225   1.917       .  S
Br581      C1224   1.917   1_455  S
C585        C586   1.409       .  A
C585        C590   1.403       .  A
C585        H592   1.082       .  S
C586        C587   1.421       .  A
C587        C588   1.404       .  A
C587       Br594   1.920       .  S
C588        C589   1.400       .  A
C588        H593   1.083       .  S
C589        C590   1.407       .  A
C590       Br591   1.916       .  S
C595        C596   1.405       .  A
C595        C600   1.402       .  A
C595        H602   1.084       .  S
C596        C597   1.414       .  A
C597        C598   1.393       .  A
C597       Br604   1.922       .  S
C598        C599   1.400       .  A
C598        H603   1.084       .  S
C599        C600   1.409       .  A
C600       Br601   1.916       .  S
C605        C606   1.403       .  A
C605        C610   1.400       .  A
C605        H612   1.083       .  S
C606        C607   1.408   1_565  A
C607        C608   1.393       .  A
C607       Br614   1.921       .  S
C608        C609   1.404   1_545  A
C608        H613   1.083       .  S
C609        C610   1.413       .  A
C610       Br611   1.920       .  S
C615        C616   1.409       .  A
C615        C620   1.404       .  A
C615        H622   1.082       .  S
C616        C617   1.415   1_565  A
C617        C618   1.403       .  A
C618        C619   1.403   1_545  A
C619        C620   1.407       .  A
C620       Br621   1.914       .  S
C625        C630   1.406       .  A
C625        H632   1.083       .  S
C626        C627   1.421   1_565  A
C627        C628   1.402       .  A
C627       Br634   1.920       .  S
C628        C629   1.400   1_545  A
C628        H633   1.083       .  S
C630       Br631   1.913       .  S
C635        C636   1.402       .  A
C635        C640   1.403       .  A
C635        H642   1.084       .  S
C637        C638   1.392       .  A
C637       Br644   1.921       .  S
C638        H643   1.081       .  S
C639        C640   1.415       .  A
C640       Br641   1.920       .  S
N645        C971   1.367       .  A
N645        C646   1.353       .  A
N645       C1112   1.445       .  S
C646        C969   1.377       .  A
C646       C1119   1.474       .  S
C647        C968   1.377       .  A
C647        C648   1.373       .  A
C647        H650   1.082       .  S
C648        C649   1.389       .  A
C648        H651   1.078       .  S
C649        N967   1.367       .  A
C649        C656   1.496       .  S
N652        C656   1.367       .  A
N652        C653   1.356       .  A
N652        C780   1.446       .  S
C653        C654   1.377       .  A
C653        C767   1.478       .  S
C654        C655   1.370       .  A
C654        H657   1.082       .  S
C655        C656   1.388       .  A
C655        H658   1.077       .  S
N659        C663   1.367       .  A
N659        C660   1.358       .  A
N659        C750   1.445       .  S
C660        C661   1.378       .  A
C660        C760   1.478       .  S
C661        C662   1.369       .  A
C661        H664   1.082       .  S
C662        C663   1.387       .  A
C662        H665   1.078       .  S
C663        C670   1.497       .  S
N666        C670   1.366       .  A
N666        C667   1.356       .  A
N666        C737   1.445       .  S
C667        C668   1.379       .  A
C667        C727   1.482       .  S
C668        C669   1.374       .  A
C668        H671   1.082       .  S
C669        C670   1.388       .  A
C669        H672   1.078       .  S
C673        N691   1.354       .  A
C673       C1032   1.461       .  S
C673        C800   1.484       .  S
N674        N691   1.327       .  A
N674       N1018   1.320       .  A
C675        N700   1.345       .  A
C675        C713   1.470       .  S
C675        H720   1.081       .  S
H676        C717   1.080       .  S
C677        N701   1.345       .  A
C677        C681   1.468       .  S
C677        H706   1.081       .  S
Co678       N686   2.092       .  S
Co678       N855   2.088   1_554  S
Co678     Cl1044   2.450   1_545  S
N679        C717   1.333       .  A
N679        N686   1.317       .  A
N679       Co680   2.064       .  S
Co680       N683   2.098   1_545  S
Co680       N861   2.104   1_554  S
Co680       N848   2.069   1_544  S
Co680     Cl1044   2.446   1_545  S
C681       N1041   1.353       .  A
C681        C777   1.493       .  S
N682        N689   1.320       .  A
N682        N712   1.324       .  A
N682       Co715   2.086       .  S
N683       N1023   1.319       .  A
N683        N719   1.326   1_565  A
N684        C713   1.352       .  A
N684        N694   1.326       .  A
H685        C710   1.081       .  S
N686        N707   1.327       .  A
N687       N1027   1.317       .  A
N687        N692   1.321   1_565  A
N687       Co841   2.070   1_565  S
C688       N1014   1.350       .  A
C688        C716   1.464       .  S
C688        C770   1.478       .  S
N689        C704   1.345       .  A
N689       Co711   2.103       .  S
C690        N718   1.339       .  A
C690       C1015   1.464   1_545  S
C690        H724   1.079       .  S
N692       C1010   1.350   1_545  A
C693        N714   1.359       .  A
C693       C1012   1.464       .  S
C693        C787   1.499       .  S
N694        N700   1.319       .  A
N694       Co839   2.087       .  S
N695        C721   1.344       .  A
N695        N697   1.320       .  A
N695       Co872   2.096       .  S
N696        C710   1.334       .  A
N696        N996   1.320   1_545  A
N697        N725   1.320       .  A
N697       Co876   2.076       .  S
H698        C721   1.080       .  S
H699        C716   1.080       .  S
N700       Co841   2.103       .  S
N701       N1005   1.319       .  A
N701       Co715   2.093       .  S
N702        N714   1.330       .  A
N702       N1040   1.319       .  A
C703        N707   1.354       .  A
C703        C717   1.456       .  S
C703        C757   1.479       .  S
C704        C723   1.470       .  S
C704        H708   1.080       .  S
N705        C716   1.341       .  A
N705       N1009   1.317       .  A
N705       Co876   2.082       .  S
C709        N725   1.348       .  A
C709        C721   1.470       .  S
C709        C730   1.483       .  S
C710        C995   1.461   1_545  S
Co711       N856   2.096   1_554  S
Co711      Cl722   2.464       .  S
N712        C723   1.352       .  A
C713        C747   1.498       .  S
Co715       N858   2.077   1_554  S
Co715       N866   2.081   1_554  S
Co715      Cl722   2.450       .  S
N718       N1024   1.319   1_545  A
N719       C1003   1.353   1_545  A
Cl722     Co1000   2.450       .  S
Cl722     Co1002   2.446       .  S
C723        C740   1.494       .  S
C726        C727   1.404       .  A
C726        C731   1.402       .  A
C726        H733   1.083       .  S
C727        C728   1.409       .  A
C728        C729   1.394       .  A
C728       Br735   1.922       .  S
C729        C730   1.406       .  A
C729        H734   1.083       .  S
C730        C731   1.412       .  A
C736        C737   1.402       .  A
C736        C741   1.405       .  A
C736        H743   1.083       .  S
C737        C738   1.407       .  A
C738        C739   1.399       .  A
C738       Br745   1.916       .  S
C739        C740   1.408       .  A
C739        H744   1.083       .  S
C740        C741   1.419       .  A
C746        C747   1.409       .  A
C746        C751   1.403       .  A
C746        H753   1.082       .  S
C747        C748   1.421       .  A
C748        C749   1.404       .  A
C748       Br755   1.920   1_655  S
C749        C750   1.400       .  A
C749        H754   1.083       .  S
C750        C751   1.407       .  A
C751       Br752   1.916       .  S
C756        C757   1.405       .  A
C756        C761   1.402       .  A
C756        H763   1.084       .  S
C757        C758   1.415       .  A
C758        C759   1.393       .  A
C758       Br765   1.922       .  S
C759        C760   1.400       .  A
C759        H764   1.084       .  S
C760        C761   1.409       .  A
C761       Br762   1.916       .  S
C766        C767   1.403       .  A
C766        C771   1.400       .  A
C766        H773   1.083       .  S
C767        C768   1.408       .  A
C768        C769   1.393       .  A
C768       Br775   1.921       .  S
C769        C770   1.404       .  A
C769        H774   1.083       .  S
C770        C771   1.413       .  A
C771       Br772   1.920       .  S
C776        C777   1.409       .  A
C776        C781   1.404       .  A
C776        H783   1.082       .  S
C777        C778   1.415       .  A
C778        C779   1.403       .  A
C778      Br1107   1.920       .  S
C779        C780   1.403       .  A
C779       H1106   1.083       .  S
C780        C781   1.407       .  A
C781       Br782   1.914       .  S
H784       C1101   1.083       .  S
Br785      C1100   1.920       .  S
C786       C1109   1.410       .  A
C786        C791   1.406       .  A
C786        H793   1.083       .  S
C787       C1108   1.410       .  A
C787        C788   1.420       .  A
C788        C789   1.402       .  A
C788       Br795   1.920       .  S
C789        C790   1.400       .  A
C789        H794   1.083       .  S
C790        N967   1.445       .  S
C790       C1113   1.405       .  A
C791       C1112   1.405       .  A
C791       Br792   1.913       .  S
C796        C797   1.402       .  A
C796        C801   1.403       .  A
C796        H803   1.084       .  S
C797       C1120   1.404       .  A
C797        C968   1.474       .  S
C798       C1119   1.404   1_545  A
C798        C799   1.392       .  A
C798       Br805   1.920       .  S
C799       C1122   1.407   1_545  A
C799        H804   1.081       .  S
C800       C1121   1.407       .  A
C800        C801   1.415       .  A
C801       Br802   1.920       .  S
N806       C1132   1.367       .  A
N806        C807   1.353       .  A
N806       C1273   1.445       .  S
C807       C1130   1.377       .  A
C807       C1280   1.473       .  S
C808       C1129   1.377       .  A
C808        C809   1.372       .  A
C808        H811   1.082       .  S
C809        C810   1.389       .  A
C809        H812   1.078       .  S
C810       N1128   1.367       .  A
C810        C817   1.496       .  S
N813        C817   1.367       .  A
N813        C814   1.356       .  A
N813        C941   1.446       .  S
C814        C815   1.377       .  A
C814        C928   1.478       .  S
C815        C816   1.370       .  A
C815        H818   1.082       .  S
C816        C817   1.388       .  A
C816        H819   1.077       .  S
N820        C824   1.367       .  A
N820        C821   1.358       .  A
N820        C911   1.445       .  S
C821        C822   1.378       .  A
C821        C921   1.478       .  S
C822        C823   1.369       .  A
C822        H825   1.082       .  S
C823        C824   1.387       .  A
C823        H826   1.078       .  S
C824        C831   1.497       .  S
N827        C831   1.366       .  A
N827        C828   1.356       .  A
N827        C898   1.445       .  S
C828        C829   1.379       .  A
C828        C888   1.483       .  S
C829        C830   1.373       .  A
C829        H832   1.082       .  S
C830        C831   1.388       .  A
C830        H833   1.077       .  S
C834        N852   1.354       .  A
C834       C1193   1.461       .  S
C834        C961   1.485       .  S
N835        N852   1.327       .  A
N835       N1179   1.320       .  A
C836        N861   1.345       .  A
C836        C874   1.470       .  S
C836        H881   1.081       .  S
H837        C878   1.080       .  S
C838        N862   1.345       .  A
C838        C842   1.468       .  S
C838        H867   1.081       .  S
Co839       N847   2.091       .  S
Co839     Cl1205   2.451   1_545  S
N840        C878   1.333       .  A
N840        N847   1.317       .  A
N840       Co841   2.065       .  S
Co841       N844   2.099   1_545  S
Co841     Cl1205   2.446   1_545  S
C842       N1202   1.353       .  A
C842        C938   1.493       .  S
N843        N850   1.320       .  A
N843        N873   1.324       .  A
N843       Co876   2.087       .  S
N844       N1184   1.319       .  A
N844        N880   1.326   1_565  A
N845        C874   1.352       .  A
N845        N855   1.326       .  A
H846        C871   1.081       .  S
N847        N868   1.327       .  A
N848       N1188   1.316       .  A
N848        N853   1.321   1_565  A
C849       N1175   1.350       .  A
C849        C877   1.464       .  S
C849        C931   1.477       .  S
N850        C865   1.345       .  A
N850       Co872   2.103       .  S
C851        N879   1.339       .  A
C851       C1176   1.464   1_545  S
C851        H885   1.079       .  S
N853       C1171   1.350   1_545  A
C854        N875   1.359       .  A
C854       C1173   1.464       .  S
C854        C948   1.499       .  S
N855        N861   1.319       .  A
N856        C882   1.344       .  A
N856        N858   1.320       .  A
N857        C871   1.334       .  A
N857       N1157   1.320   1_545  A
N858        N886   1.320       .  A
H859        C882   1.081       .  S
H860        C877   1.080       .  S
N862       N1166   1.319       .  A
N862       Co876   2.092       .  S
N863        N875   1.330       .  A
N863       N1201   1.319       .  A
C864        N868   1.354       .  A
C864        C878   1.456       .  S
C864        C918   1.479       .  S
C865        C884   1.470       .  S
C865        H869   1.080       .  S
N866        C877   1.341       .  A
N866       N1170   1.316       .  A
C870        N886   1.348       .  A
C870        C882   1.470       .  S
C870        C891   1.483       .  S
C871       C1156   1.461   1_545  S
Co872      Cl883   2.463       .  S
N873        C884   1.352       .  A
C874        C908   1.498       .  S
Co876      Cl883   2.450       .  S
N879       N1185   1.319   1_545  A
N880       C1164   1.353   1_545  A
Cl883     Co1161   2.451       .  S
Cl883     Co1163   2.446       .  S
C884        C901   1.494       .  S
C887        C888   1.404       .  A
C887        C892   1.401       .  A
C887        H894   1.083       .  S
C888        C889   1.409       .  A
C889        C890   1.394       .  A
C889       Br896   1.922       .  S
C890        C891   1.406       .  A
C890        H895   1.083       .  S
C891        C892   1.412       .  A
C897        C898   1.402       .  A
C897        C902   1.405       .  A
C897        H904   1.083       .  S
C898        C899   1.407       .  A
C899        C900   1.400       .  A
C899       Br906   1.916       .  S
C900        C901   1.408       .  A
C900        H905   1.083       .  S
C901        C902   1.419       .  A
C907        C908   1.409       .  A
C907        C912   1.403       .  A
C907        H914   1.082       .  S
C908        C909   1.421       .  A
C909        C910   1.404       .  A
C909       Br916   1.920   1_655  S
C910        C911   1.400       .  A
C910        H915   1.083       .  S
C911        C912   1.407       .  A
C912       Br913   1.916       .  S
C917        C918   1.405       .  A
C917        C922   1.402       .  A
C917        H924   1.084       .  S
C918        C919   1.414       .  A
C919        C920   1.393       .  A
C919       Br926   1.922       .  S
C920        C921   1.400       .  A
C920        H925   1.084       .  S
C921        C922   1.409       .  A
C922       Br923   1.916       .  S
C927        C928   1.403       .  A
C927        C932   1.400       .  A
C927        H934   1.083       .  S
C928        C929   1.408       .  A
C929        C930   1.393       .  A
C929       Br936   1.921       .  S
C930        C931   1.404       .  A
C930        H935   1.083       .  S
C931        C932   1.413       .  A
C932       Br933   1.920       .  S
C937        C938   1.409       .  A
C937        C942   1.404       .  A
C937        H944   1.082       .  S
C938        C939   1.415       .  A
C939        C940   1.403       .  A
C939      Br1268   1.920       .  S
C940        C941   1.403       .  A
C940       H1267   1.083       .  S
C941        C942   1.407       .  A
C942       Br943   1.914       .  S
H945       C1262   1.083       .  S
Br946      C1261   1.920       .  S
C947       C1270   1.410       .  A
C947        C952   1.406       .  A
C947        H954   1.083       .  S
C948       C1269   1.410       .  A
C948        C949   1.421       .  A
C949        C950   1.402       .  A
C949       Br956   1.920       .  S
C950        C951   1.400       .  A
C950        H955   1.083       .  S
C951       N1128   1.445       .  S
C951       C1274   1.405       .  A
C952       C1273   1.405       .  A
C952       Br953   1.913       .  S
C957        C958   1.402       .  A
C957        C962   1.403       .  A
C957        H964   1.084       .  S
C958       C1281   1.403       .  A
C958       C1129   1.473       .  S
C959       C1280   1.403   1_545  A
C959        C960   1.392       .  A
C959       Br966   1.921       .  S
C960       C1283   1.407   1_545  A
C960        H965   1.081       .  S
C961       C1282   1.407       .  A
C961        C962   1.415       .  A
C962       Br963   1.920       .  S
N967        C968   1.353       .  A
C969        C970   1.373   1_565  A
C969        H972   1.082   1_565  S
C970        C971   1.389   1_545  A
C970        H973   1.078       .  S
C971        C978   1.496       .  S
N974        C978   1.367       .  A
N974        C975   1.356       .  A
N974       C1102   1.446       .  S
C975        C976   1.377   1_565  A
C975       C1089   1.478       .  S
C976        C977   1.370       .  A
C976        H979   1.082       .  S
C977        C978   1.388   1_545  A
C977        H980   1.077       .  S
N981        C985   1.367       .  A
N981        C982   1.358       .  A
N981       C1072   1.445       .  S
C982        C983   1.378       .  A
C982       C1082   1.478       .  S
C983        C984   1.369       .  A
C983        H986   1.082       .  S
C984        C985   1.387       .  A
C984        H987   1.078       .  S
C985        C992   1.497       .  S
N988        C992   1.366       .  A
N988        C989   1.356       .  A
N988       C1059   1.445       .  S
C989        C990   1.379       .  A
C989       C1049   1.482       .  S
C990        C991   1.374       .  A
C990        H993   1.082       .  S
C991        C992   1.388       .  A
C991        H994   1.078       .  S
C995       N1013   1.354       .  A
C995       C1122   1.484       .  S
N996       N1013   1.327       .  A
C997       N1022   1.345       .  A
C997       C1035   1.470       .  S
C997       H1042   1.081       .  S
H998       C1039   1.080       .  S
C999       N1023   1.345       .  A
C999       C1003   1.468       .  S
C999       H1028   1.081       .  S
Co1000     N1008   2.092       .  S
Co1000     N1177   2.088   1_554  S
N1001      C1039   1.333       .  A
N1001      N1008   1.317       .  A
N1001     Co1002   2.064       .  S
Co1002     N1005   2.098       .  S
Co1002     N1183   2.104   1_554  S
Co1002     N1170   2.069   1_554  S
C1003      C1099   1.493       .  S
N1004      N1011   1.320       .  A
N1004      N1034   1.324       .  A
N1004     Co1037   2.086       .  S
N1005      N1041   1.326       .  A
N1006      C1035   1.352       .  A
N1006      N1016   1.326       .  A
H1007      C1032   1.081       .  S
N1008      N1029   1.327       .  A
N1009      N1014   1.321       .  A
N1009     Co1163   2.070       .  S
C1010      C1038   1.464       .  S
C1010      C1092   1.478       .  S
N1011      C1026   1.345       .  A
N1011     Co1033   2.103       .  S
C1012      N1040   1.339       .  A
C1012      H1046   1.079       .  S
C1015      N1036   1.359       .  A
C1015      C1109   1.499       .  S
N1016      N1022   1.319       .  A
N1016     Co1161   2.087       .  S
N1017      C1043   1.344       .  A
N1017      N1019   1.320       .  A
N1017     Co1194   2.096       .  S
N1018      C1032   1.334       .  A
N1019      N1047   1.320       .  A
N1019     Co1198   2.076       .  S
H1020      C1043   1.080       .  S
H1021      C1038   1.080       .  S
N1022     Co1163   2.103       .  S
N1023     Co1037   2.093       .  S
N1024      N1036   1.330       .  A
C1025      N1029   1.354       .  A
C1025      C1039   1.456       .  S
C1025      C1079   1.479       .  S
C1026      C1045   1.470       .  S
C1026      H1030   1.080       .  S
N1027      C1038   1.341       .  A
N1027     Co1198   2.082       .  S
C1031      N1047   1.348       .  A
C1031      C1043   1.470       .  S
C1031      C1052   1.483       .  S
Co1033     N1178   2.096   1_554  S
Co1033    Cl1044   2.464       .  S
N1034      C1045   1.352       .  A
C1035      C1069   1.498       .  S
Co1037     N1180   2.077   1_554  S
Co1037     N1188   2.081   1_554  S
Co1037    Cl1044   2.450       .  S
C1045      C1062   1.494       .  S
C1048      C1049   1.404       .  A
C1048      C1053   1.402       .  A
C1048      H1055   1.083       .  S
C1049      C1050   1.409       .  A
C1050      C1051   1.394       .  A
C1050     Br1057   1.922       .  S
C1051      C1052   1.406       .  A
C1051      H1056   1.083       .  S
C1052      C1053   1.412       .  A
C1058      C1059   1.402       .  A
C1058      C1063   1.405       .  A
C1058      H1065   1.083       .  S
C1059      C1060   1.407       .  A
C1060      C1061   1.399       .  A
C1060     Br1067   1.916       .  S
C1061      C1062   1.408       .  A
C1061      H1066   1.083       .  S
C1062      C1063   1.419       .  A
C1068      C1069   1.409       .  A
C1068      C1073   1.403       .  A
C1068      H1075   1.082       .  S
C1069      C1070   1.421       .  A
C1070      C1071   1.404       .  A
C1070     Br1077   1.920   1_655  S
C1071      C1072   1.400       .  A
C1071      H1076   1.083       .  S
C1072      C1073   1.407       .  A
C1073     Br1074   1.916       .  S
C1078      C1079   1.405       .  A
C1078      C1083   1.402       .  A
C1078      H1085   1.084       .  S
C1079      C1080   1.415       .  A
C1080      C1081   1.393       .  A
C1080     Br1087   1.922       .  S
C1081      C1082   1.400       .  A
C1081      H1086   1.084       .  S
C1082      C1083   1.409       .  A
C1083     Br1084   1.916       .  S
C1088      C1089   1.403       .  A
C1088      C1093   1.400       .  A
C1088      H1095   1.083       .  S
C1089      C1090   1.408   1_565  A
C1090      C1091   1.393       .  A
C1090     Br1097   1.921       .  S
C1091      C1092   1.404   1_545  A
C1091      H1096   1.083       .  S
C1092      C1093   1.413       .  A
C1093     Br1094   1.920       .  S
C1098      C1099   1.409       .  A
C1098      C1103   1.404       .  A
C1098      H1105   1.082       .  S
C1099      C1100   1.415   1_565  A
C1100      C1101   1.403       .  A
C1101      C1102   1.403   1_545  A
C1102      C1103   1.407       .  A
C1103     Br1104   1.914       .  S
C1108      C1113   1.406       .  A
C1108      H1115   1.083       .  S
C1109      C1110   1.420   1_565  A
C1110      C1111   1.402       .  A
C1110     Br1117   1.920       .  S
C1111      C1112   1.400   1_545  A
C1111      H1116   1.083       .  S
C1113     Br1114   1.913       .  S
C1118      C1119   1.402       .  A
C1118      C1123   1.403       .  A
C1118      H1125   1.084       .  S
C1120      C1121   1.392       .  A
C1120     Br1127   1.920       .  S
C1121      H1126   1.081       .  S
C1122      C1123   1.415       .  A
C1123     Br1124   1.920       .  S
N1128      C1129   1.353       .  A
C1130      C1131   1.372   1_565  A
C1130      H1133   1.082   1_565  S
C1131      C1132   1.389   1_545  A
C1131      H1134   1.078       .  S
C1132      C1139   1.496       .  S
N1135      C1139   1.367       .  A
N1135      C1136   1.356       .  A
N1135      C1263   1.446       .  S
C1136      C1137   1.377   1_565  A
C1136      C1250   1.478       .  S
C1137      C1138   1.370       .  A
C1137      H1140   1.082       .  S
C1138      C1139   1.388   1_545  A
C1138      H1141   1.077       .  S
N1142      C1146   1.367       .  A
N1142      C1143   1.358       .  A
N1142      C1233   1.445       .  S
C1143      C1144   1.378       .  A
C1143      C1243   1.478       .  S
C1144      C1145   1.369       .  A
C1144      H1147   1.082       .  S
C1145      C1146   1.387       .  A
C1145      H1148   1.078       .  S
C1146      C1153   1.497       .  S
N1149      C1153   1.366       .  A
N1149      C1150   1.356       .  A
N1149      C1220   1.445       .  S
C1150      C1151   1.379       .  A
C1150      C1210   1.483       .  S
C1151      C1152   1.373       .  A
C1151      H1154   1.082       .  S
C1152      C1153   1.388       .  A
C1152      H1155   1.077       .  S
C1156      N1174   1.354       .  A
C1156      C1283   1.485       .  S
N1157      N1174   1.327       .  A
C1158      N1183   1.345       .  A
C1158      C1196   1.470       .  S
C1158      H1203   1.081       .  S
H1159      C1200   1.080       .  S
C1160      N1184   1.345       .  A
C1160      C1164   1.468       .  S
C1160      H1189   1.081       .  S
Co1161     N1169   2.091       .  S
N1162      C1200   1.333       .  A
N1162      N1169   1.317       .  A
N1162     Co1163   2.065       .  S
Co1163     N1166   2.099       .  S
C1164      C1260   1.493       .  S
N1165      N1172   1.320       .  A
N1165      N1195   1.324       .  A
N1165     Co1198   2.087       .  S
N1166      N1202   1.326       .  A
N1167      C1196   1.352       .  A
N1167      N1177   1.326       .  A
H1168      C1193   1.081       .  S
N1169      N1190   1.327       .  A
N1170      N1175   1.321       .  A
C1171      C1199   1.464       .  S
C1171      C1253   1.477       .  S
N1172      C1187   1.345       .  A
N1172     Co1194   2.103       .  S
C1173      N1201   1.339       .  A
C1173      H1207   1.079       .  S
C1176      N1197   1.359       .  A
C1176      C1270   1.499       .  S
N1177      N1183   1.319       .  A
N1178      C1204   1.344       .  A
N1178      N1180   1.320       .  A
N1179      C1193   1.334       .  A
N1180      N1208   1.320       .  A
H1181      C1204   1.080       .  S
H1182      C1199   1.080       .  S
N1184     Co1198   2.092       .  S
N1185      N1197   1.330       .  A
C1186      N1190   1.354       .  A
C1186      C1200   1.456       .  S
C1186      C1240   1.479       .  S
C1187      C1206   1.470       .  S
C1187      H1191   1.080       .  S
N1188      C1199   1.341       .  A
C1192      N1208   1.348       .  A
C1192      C1204   1.470       .  S
C1192      C1213   1.483       .  S
Co1194    Cl1205   2.463       .  S
N1195      C1206   1.352       .  A
C1196      C1230   1.498       .  S
Co1198    Cl1205   2.450       .  S
C1206      C1223   1.494       .  S
C1209      C1210   1.404       .  A
C1209      C1214   1.401       .  A
C1209      H1216   1.083       .  S
C1210      C1211   1.409       .  A
C1211      C1212   1.394       .  A
C1211     Br1218   1.922       .  S
C1212      C1213   1.406       .  A
C1212      H1217   1.083       .  S
C1213      C1214   1.412       .  A
C1219      C1220   1.402       .  A
C1219      C1224   1.405       .  A
C1219      H1226   1.083       .  S
C1220      C1221   1.407       .  A
C1221      C1222   1.400       .  A
C1221     Br1228   1.916       .  S
C1222      C1223   1.408       .  A
C1222      H1227   1.083       .  S
C1223      C1224   1.419       .  A
C1229      C1230   1.409       .  A
C1229      C1234   1.403       .  A
C1229      H1236   1.082       .  S
C1230      C1231   1.421       .  A
C1231      C1232   1.404       .  A
C1231     Br1238   1.920   1_655  S
C1232      C1233   1.400       .  A
C1232      H1237   1.083       .  S
C1233      C1234   1.407       .  A
C1234     Br1235   1.916       .  S
C1239      C1240   1.405       .  A
C1239      C1244   1.402       .  A
C1239      H1246   1.084       .  S
C1240      C1241   1.414       .  A
C1241      C1242   1.393       .  A
C1241     Br1248   1.922       .  S
C1242      C1243   1.400       .  A
C1242      H1247   1.084       .  S
C1243      C1244   1.409       .  A
C1244     Br1245   1.916       .  S
C1249      C1250   1.403       .  A
C1249      C1254   1.400       .  A
C1249      H1256   1.083       .  S
C1250      C1251   1.408   1_565  A
C1251      C1252   1.393       .  A
C1251     Br1258   1.921       .  S
C1252      C1253   1.404   1_545  A
C1252      H1257   1.083       .  S
C1253      C1254   1.413       .  A
C1254     Br1255   1.920       .  S
C1259      C1260   1.409       .  A
C1259      C1264   1.404       .  A
C1259      H1266   1.082       .  S
C1260      C1261   1.415   1_565  A
C1261      C1262   1.403       .  A
C1262      C1263   1.403   1_545  A
C1263      C1264   1.407       .  A
C1264     Br1265   1.914       .  S
C1269      C1274   1.406       .  A
C1269      H1276   1.083       .  S
C1270      C1271   1.421   1_565  A
C1271      C1272   1.402       .  A
C1271     Br1278   1.920       .  S
C1272      C1273   1.400   1_545  A
C1272      H1277   1.083       .  S
C1274     Br1275   1.913       .  S
C1279      C1280   1.402       .  A
C1279      C1284   1.403       .  A
C1279      H1286   1.084       .  S
C1281      C1282   1.392       .  A
C1281     Br1288   1.921       .  S
C1282      H1287   1.081       .  S
C1283      C1284   1.415       .  A
C1284     Br1285   1.920       .  S
