geometry optimzed in LAMMPS
_audit_creation_date              2020-11-30 
_audit_creation_method            'lammps2cif' 
_symmetry_space_group_name_H-M    'P1' 
_symmetry_Int_Tables_number       1 
_symmetry_cell_setting            triclinic 
loop_ 
_symmetry_equiv_pos_as_xyz 
  x,y,z 
_cell_length_a                    32.0869693 
_cell_length_b                    32.2653410513608 
_cell_length_c                    32.663040687212096 
_cell_angle_alpha                 89.5490520273123 
_cell_angle_beta                  90.03814789682215 
_cell_angle_gamma                 120.71345544449312 
loop_ 
_atom_site_label 
_atom_site_type_symbol 
_atom_site_fract_x 
_atom_site_fract_y 
_atom_site_fract_z 
_atom_site_charge 
C1          C  0.78678491  0.18696896  0.48486868     0.03100
C2          C  0.81201283  0.16218842  0.48173639    -0.13100
C3          C  0.84971832  0.17160682  0.00897038     0.00600
C4          C  0.86170640  0.20605443  0.03982482    -0.11600
C5          C  0.83648747  0.23118293  0.04369057     0.03000
C6          C  0.79885264  0.22098702  0.51589073    -0.11000
H7          H  0.80318584  0.13660774  0.45719472     0.08600
H8          H  0.89052014  0.21287153  0.06092015     0.06200
H9          H  0.78017982  0.24100155  0.51695436     0.06000
C10         C  0.11784970  0.36843362  0.42564657     0.03100
C11         C  0.15127713  0.39571266  0.45648726    -0.13100
C12         C  0.16042639  0.37292161  0.98913435     0.00600
C13         C  0.13696266  0.32235182  0.99000383    -0.11600
C14         C  0.10369381  0.29466989  0.45957427     0.03000
C15         C  0.09398622  0.31768908  0.42761219    -0.11000
H16         H  0.16838345  0.43462882  0.45627019     0.08600
H17         H  0.14396940  0.30432395  0.01489973     0.06200
H18         H  0.06793401  0.29606268  0.40437215     0.06000
C19         C  0.29530774  0.18392234  0.04567060     0.03100
C20         C  0.32204536  0.22615102  0.02200710    -0.13100
C21         C  0.29864761  0.24043985  0.49389124     0.00600
C22         C  0.24819455  0.21237455  0.48963412    -0.11600
C23         C  0.22105264  0.16945991  0.01214745     0.03000
C24         C  0.24479920  0.15546115  0.04018264    -0.11000
H25         H  0.36112101  0.24751320  0.02494675     0.08600
H26         H  0.23034344  0.22290505  0.46718361     0.06200
H27         H  0.22391920  0.12261062  0.05792941     0.06000
C28         C  0.15344110  0.90341319  0.43226737     0.03100
C29         C  0.12997438  0.93011727  0.43487226    -0.13100
C30         C  0.08863710  0.91351366  0.45954872     0.00600
C31         C  0.07183261  0.87101288  0.98268038    -0.11600
C32         C  0.09643606  0.84542895  0.98217400     0.03000
C33         C  0.13666384  0.86133354  0.45610160    -0.11000
H34         H  0.14330185  0.96312627  0.41723560     0.08600
H35         H  0.04103014  0.85942070  0.00298104     0.06200
H36         H  0.15576540  0.84170090  0.45513582     0.06000
C37         C  0.83851844  0.71806643  0.49204348     0.03100
C38         C  0.80096293  0.69355910  0.52088599    -0.13100
C39         C  0.78508699  0.71885714  0.04518884     0.00600
C40         C  0.80750221  0.76927832  0.04057631    -0.11600
C41         C  0.84507885  0.79432048  0.51221145     0.03000
C42         C  0.86004531  0.76842324  0.48809828    -0.11000
H43         H  0.78366876  0.65480070  0.52410175     0.08600
H44         H  0.79606144  0.78921852  0.05937790     0.06200
H45         H  0.88751064  0.78763115  0.46485507     0.06000
C46         C  0.64610499  0.89941671  0.00323019     0.03100
C47         C  0.62066635  0.85954727  0.47743541    -0.13100
C48         C  0.64517772  0.84999483  0.44664381     0.00600
C49         C  0.69563524  0.88008693  0.44223847    -0.11600
C50         C  0.72109013  0.92027505  0.46748969     0.03000
C51         C  0.69613113  0.93009178  0.99736884    -0.11000
H52         H  0.58194850  0.83577037  0.48146392     0.08600
H53         H  0.71503154  0.87195939  0.41956952     0.06200
H54         H  0.71616551  0.96088798  0.01717751     0.06000
O55         O  0.95052538  0.10632503  0.45436419    -0.88400
C56         C  0.04378017  0.11775415  0.04505959     0.87600
Mg57       Mg  0.87482702  0.05194452  0.45752877     1.58100
O58         O  0.05433189  0.06566407  0.45448753    -0.88200
O59         O  0.01365238  0.12883861  0.41473850    -0.75500
C60         C  0.86767853  0.84706006  0.00569417     0.92700
O61         O  0.92941486  0.08616152  0.05128533    -0.75300
O62         O  0.84360344  0.86773894  0.01265135    -0.82800
Mg63       Mg  0.98058725  0.14905157  0.00896499     1.58000
C64         C  0.06315073  0.94046108  0.46334854     0.92600
O65         O  0.03275975  0.21955765  0.47336611    -0.81100
H66         H  0.06622509  0.06868046  0.39417477    -0.06400
C67         C  0.97421397  0.97209360  0.04601403     0.87500
O68         O  0.88629974  0.00104457  0.41638800    -0.75600
O69         O  0.03330593  0.12651095  0.01089146    -0.88300
O70         O  0.08678852  0.98495339  0.47315862    -0.81100
C71         C  0.16856991  0.13867277  0.00430896     0.92700
C72         C  0.07750214  0.24175260  0.46333685     0.92600
Mg73       Mg  0.96215462  0.94012471  0.45716557     1.58000
O74         O  0.91051909  0.87010102  0.49110412    -0.81100
O75         O  0.01330210  0.00327565  0.41502730    -0.75300
O76         O  0.14572476  0.15874083  0.99113885    -0.81200
O77         O  0.92408349  0.17190759  0.00873285    -0.82900
O78         O  0.79720011  0.92747336  0.47623766    -0.81200
C79         C  0.04602439  0.04696336  0.42033994     0.87000
O80         O  0.90928218  0.96152453  0.45608157    -0.88300
O81         O  0.99245160  0.98233505  0.01139285    -0.88400
O82         O  0.93082800  0.96145848  0.05246486    -0.75500
Mg83       Mg  0.07659173  0.14073288  0.45655933     1.58000
O84         O  0.14804430  0.09318466  0.00897032    -0.82900
H85         H  0.94849249  0.11609143  0.39403141    -0.06600
O86         O  0.88939395  0.02336228  0.01203378    -0.88100
H87         H  0.87651622  0.02075206  0.07214508    -0.06400
H88         H  0.89855056  0.94889915  0.39607705    -0.06600
C89         C  0.89701672  0.04234045  0.04603280     0.87000
C90         C  0.96981308  0.11737704  0.42015860     0.87600
C91         C  0.89767998  0.96908134  0.42199546     0.87600
H92         H  0.99636336  0.97397588  0.07170071    -0.06600
O93         O  0.05512395  0.08566909  0.05040484    -0.75600
Mg94       Mg  0.86715241  0.94781014  0.01133626     1.58000
H95         H  0.04201210  0.13704704  0.07128081    -0.06600
C96         C  0.87844900  0.14783142  0.00296884     0.92600
O97         O  0.79521320  0.99440144  0.46256396    -0.82800
C98         C  0.77423003  0.94889292  0.46736092     0.92600
O99         O  0.10111937  0.22019951  0.45928019    -0.82800
Mg100      Mg  0.06803247  0.03588224  0.00884939     1.58200
O101        O  0.85697078  0.10446603  0.49021084    -0.81100
O102        O  0.01737491  0.91717047  0.45942161    -0.82800
C103        C  0.95247948  0.57899960  0.27430049     0.86400
C104        C  0.97248728  0.61560825  0.23920206    -0.53800
C105        C  0.99666204  0.60618697  0.21020773     0.09300
C106        C  0.99885316  0.56034733  0.21877661     0.20300
C107        C  0.92060447  0.52961814  0.25262111    -0.54500
C108        C  0.94545062  0.51969369  0.22340132     0.09400
C109        C  0.99591294  0.57623626  0.29048908    -0.54100
C110        C  0.01933751  0.56460434  0.26219861     0.10000
H111        H  0.96677815  0.64597410  0.23684671     0.14500
H112        H  0.02019487  0.55513506  0.19486132     0.00300
H113        H  0.88331768  0.50403863  0.26081155     0.14800
H114        H  0.00175896  0.57477131  0.32315238     0.14600
C115        C  0.51374744  0.02166469  0.21595308     0.86400
C116        C  0.55406278  0.05738207  0.24431675    -0.53800
C117        C  0.54188216  0.08466095  0.26733247     0.09300
C118        C  0.49011959  0.07458098  0.25926227     0.20300
C119        C  0.46943646  0.99236353  0.24418355    -0.54500
C120        C  0.45670706  0.01991155  0.26699391     0.09400
C121        C  0.50113748  0.05390923  0.19044672    -0.54100
C122        C  0.48684716  0.08004860  0.21271379     0.10000
H123        H  0.58943686  0.06104075  0.24701569     0.14500
H124        H  0.48116813  0.09841048  0.27658034     0.00300
H125        H  0.44992809  0.95327924  0.24540219     0.14800
H126        H  0.49908036  0.05292771  0.15724579     0.14600
C127        C  0.40595906  0.51136556  0.21157131     0.86400
C128        C  0.39351268  0.47430410  0.24627866    -0.53800
C129        C  0.43071233  0.48569960  0.27256634     0.09300
C130        C  0.47768399  0.53278604  0.26177708     0.20300
C131        C  0.42537018  0.56008030  0.23361304    -0.54500
C132        C  0.46236582  0.57056407  0.26033325     0.09400
C133        C  0.45086940  0.51464860  0.19138147    -0.54100
C134        C  0.48949571  0.52855286  0.21690517     0.10000
H135        H  0.35855579  0.44189044  0.25080225     0.14500
H136        H  0.50789952  0.54146807  0.28325302     0.00300
H137        H  0.41036985  0.58329051  0.22932075     0.14800
H138        H  0.45469523  0.51346832  0.15844137     0.14600
C139        C  0.64344026  0.94599454  0.14637967    -0.17900
C140        C  0.62404316  0.96146916  0.17688534    -0.20100
C141        C  0.58258783  0.96441319  0.16915598     0.20600
C142        C  0.55919134  0.94952744  0.13099148    -0.03000
C143        C  0.57880997  0.93401979  0.10013853    -0.06100
C144        C  0.62163179  0.93313080  0.10768835     0.20900
C145        C  0.55634458  0.92073369  0.06141683     0.19000
C146        C  0.51360752  0.92154003  0.05442558    -0.17500
C147        C  0.49389513  0.93643027  0.08518299    -0.19800
C148        C  0.51687904  0.95124469  0.12331403     0.20500
C149        C  0.49964733  0.96996713  0.15309082    -0.32800
C150        C  0.52605939  0.99039929  0.18933173     0.01200
C151        C  0.56553715  0.98406641  0.19822026    -0.24100
C152        C  0.64250945  0.92047897  0.07616116    -0.28700
C153        C  0.62129763  0.90881536  0.03706076     0.06900
C154        C  0.57765295  0.90802816  0.03014926    -0.27400
H155        H  0.67610467  0.94508645  0.15276466     0.11600
H156        H  0.64225220  0.97239027  0.20616502     0.12700
H157        H  0.49579387  0.91132521  0.02493842     0.11800
H158        H  0.46137378  0.93758873  0.07876415     0.11000
H159        H  0.46731207  0.97153523  0.14679172     0.16400
H160        H  0.58400074  0.99517292  0.22726500     0.12300
H161        H  0.67569287  0.92026637  0.08185301     0.15200
H162        H  0.56123834  0.89913967  0.50003486     0.15000
C163        C  0.59508987  0.78453804  0.30757442    -0.17900
C164        C  0.56787351  0.74574626  0.28140322    -0.20100
C165        C  0.53904132  0.69889934  0.29727058     0.20600
C166        C  0.53772845  0.69108068  0.34002446    -0.03000
C167        C  0.56473791  0.73028554  0.36645665    -0.06100
C168        C  0.59369076  0.77720240  0.35009214     0.20900
C169        C  0.56281918  0.72250447  0.40922214     0.19000
C170        C  0.53465931  0.67555897  0.42507325    -0.17500
C171        C  0.50856839  0.63659984  0.39883832    -0.19800
C172        C  0.50976989  0.64403276  0.35635556     0.20500
C173        C  0.48406389  0.60516495  0.32987074    -0.32800
C174        C  0.48507711  0.61275110  0.28742573     0.01200
C175        C  0.51215700  0.65960829  0.27119483    -0.24100
C176        C  0.62057145  0.81595434  0.37653636    -0.28700
C177        C  0.61804080  0.80854523  0.41911756     0.06900
C178        C  0.58907857  0.76181480  0.43530957    -0.27400
H179        H  0.61714514  0.82033851  0.29455821     0.11600
H180        H  0.56955980  0.75236785  0.24869689     0.12700
H181        H  0.53295933  0.66893746  0.45778912     0.11800
H182        H  0.48733687  0.60064515  0.41177690     0.11000
H183        H  0.46357655  0.56878630  0.34216576     0.16400
H184        H  0.51369447  0.66512642  0.23831613     0.12300
H185        H  0.64276306  0.85210454  0.36414711     0.15200
H186        H  0.58746108  0.75613501  0.46819080     0.15000
C187        C  0.69430875  0.59056009  0.14962333    -0.17900
C188        C  0.65345369  0.56441967  0.17479546    -0.20100
C189        C  0.61750446  0.57690695  0.17672939     0.20600
C190        C  0.62377420  0.61723461  0.15402777    -0.03000
C191        C  0.66464307  0.64322708  0.12837263    -0.06100
C192        C  0.69981519  0.62948076  0.12574155     0.20900
C193        C  0.66954875  0.68215768  0.10451378     0.19000
C194        C  0.63458338  0.69579449  0.10738597    -0.17500
C195        C  0.59439553  0.67037485  0.13301502    -0.19800
C196        C  0.58835968  0.63067925  0.15583573     0.20500
C197        C  0.54638904  0.60294296  0.17894650    -0.32800
C198        C  0.53828856  0.56097586  0.19940379     0.01200
C199        C  0.57452379  0.54882999  0.19946380    -0.24100
C200        C  0.73939098  0.65446259  0.09884807    -0.28700
C201        C  0.74398257  0.69279227  0.07440039     0.06900
C202        C  0.70885517  0.70635542  0.07763168    -0.27400
H203        H  0.72115234  0.57973106  0.14823014     0.11600
H204        H  0.64954552  0.53387563  0.19216191     0.12700
H205        H  0.63800717  0.72575755  0.08940783     0.11800
H206        H  0.56741997  0.68106298  0.13425068     0.11000
H207        H  0.51852200  0.61251661  0.17932070     0.16400
H208        H  0.56831347  0.51662364  0.21553185     0.12300
H209        H  0.76660289  0.64414139  0.09697382     0.15200
H210        H  0.71152821  0.73524066  0.05851745     0.15000
C211        C  0.98260923  0.70164154  0.37765938    -0.17900
C212        C  0.96783301  0.71997439  0.40940075    -0.20100
C213        C  0.91953489  0.69504895  0.42291038     0.20600
C214        C  0.88601925  0.65061420  0.40502028    -0.03000
C215        C  0.90116344  0.63171900  0.37321166    -0.06100
C216        C  0.94946257  0.65781982  0.35925424     0.20900
C217        C  0.86793785  0.58728903  0.35497330     0.19000
C218        C  0.81981843  0.56203780  0.36927242    -0.17500
C219        C  0.80459722  0.58114072  0.40044573    -0.19800
C220        C  0.83728796  0.62570202  0.41825262     0.20500
C221        C  0.82193307  0.64661798  0.44798332    -0.32800
C222        C  0.85495503  0.69202346  0.46480036     0.01200
C223        C  0.90401849  0.71476694  0.45304222    -0.24100
C224        C  0.96401843  0.63994389  0.32699142    -0.28700
C225        C  0.93170970  0.59556391  0.30836072     0.06900
C226        C  0.88340751  0.56922887  0.32272687    -0.27400
H227        H  0.01995144  0.72192952  0.36730855     0.11600
H228        H  0.99399020  0.75418178  0.42278678     0.12700
H229        H  0.79372401  0.52778333  0.35594312     0.11800
H230        H  0.76707207  0.56127521  0.41031342     0.11000
H231        H  0.78400001  0.62855349  0.45657156     0.16400
H232        H  0.93015412  0.74888211  0.46650760     0.12300
H233        H  0.00126775  0.66059806  0.31634103     0.15200
H234        H  0.85776509  0.53514557  0.30907585     0.15000
C235        C  0.96978459  0.70120118  0.05571606    -0.17900
C236        C  0.95594812  0.66735463  0.08752391    -0.20100
C237        C  0.99104635  0.66637462  0.11252178     0.20600
C238        C  0.04066742  0.69908996  0.10488600    -0.03000
C239        C  0.05463122  0.73337493  0.07281534    -0.06100
C240        C  0.01896480  0.73470177  0.04842975     0.20900
C241        C  0.10415971  0.76712014  0.06589814     0.19000
C242        C  0.13924733  0.76583547  0.09071615    -0.17500
C243        C  0.12542417  0.73181864  0.12246763    -0.19800
C244        C  0.07624132  0.69850047  0.13004903     0.20500
C245        C  0.06186774  0.66577342  0.16315510    -0.32800
C246        C  0.01247660  0.63451855  0.17165884     0.01200
C247        C  0.97734612  0.63439723  0.14588319    -0.24100
C248        C  0.03299610  0.77028111  0.01792037    -0.28700
C249        C  0.08220595  0.80467248  0.01132480     0.06900
C250        C  0.11762596  0.80233907  0.03504810    -0.27400
H251        H  0.94196698  0.70166866  0.03723531     0.11600
H252        H  0.91771310  0.64240491  0.09298157     0.12700
H253        H  0.17743023  0.79156181  0.08588425     0.11800
H254        H  0.15320695  0.73203534  0.14149085     0.11000
H255        H  0.08883332  0.66615448  0.18342433     0.16400
H256        H  0.93922359  0.61034107  0.15274005     0.12300
H257        H  0.00561147  0.77184743  0.99976541     0.15200
H258        H  0.15558959  0.82917717  0.03061631     0.15000
C259        C  0.28786320  0.89189998  0.30211123    -0.17900
C260        C  0.24508739  0.87612104  0.32457768    -0.20100
C261        C  0.24229575  0.90584817  0.35428491     0.20600
C262        C  0.28304809  0.95187711  0.36146640    -0.03000
C263        C  0.32642900  0.96738373  0.33933521    -0.06100
C264        C  0.32878600  0.93746065  0.30928535     0.20900
C265        C  0.36737287  0.01291898  0.34724302     0.21300
C266        C  0.36463743  0.04274144  0.37685174    -0.17500
C267        C  0.32149973  0.02775331  0.39828905    -0.19800
C268        C  0.28057328  0.98241543  0.39088431     0.20500
C269        C  0.23747079  0.96685004  0.41280175    -0.32800
C270        C  0.19721806  0.92068078  0.40653729     0.01200
C271        C  0.19972872  0.89031368  0.37721685    -0.24100
C272        C  0.37167771  0.95397329  0.28647123    -0.28700
C273        C  0.41264567  0.99983198  0.29375239     0.06900
C274        C  0.41022200  0.02830020  0.32507386    -0.27400
H275        H  0.28895514  0.86840811  0.27916486     0.11600
H276        H  0.21413270  0.84071486  0.31861901     0.12700
H277        H  0.39580005  0.07790673  0.38318978     0.11800
H278        H  0.32023108  0.05153510  0.42085355     0.11000
H279        H  0.23561985  0.99001849  0.43571364     0.16400
H280        H  0.16852925  0.85470170  0.37235636     0.12300
H281        H  0.37237322  0.93160799  0.26228408     0.15200
H282        H  0.44146178  0.06290980  0.33229453     0.15000
C283        C  0.34931363  0.04221833  0.12307577    -0.17900
C284        C  0.32268450  0.05668045  0.09936291    -0.20100
C285        C  0.33367819  0.10467366  0.09999804     0.20600
C286        C  0.37119125  0.13828368  0.12543541    -0.03000
C287        C  0.39799117  0.12361630  0.14955265    -0.06100
C288        C  0.38727726  0.07551285  0.14783182     0.20900
C289        C  0.43618491  0.15724819  0.17456242     0.19000
C290        C  0.44639163  0.20503786  0.17573013    -0.17500
C291        C  0.41993090  0.21966154  0.15162880    -0.19800
C292        C  0.38266312  0.18670209  0.12601683     0.20500
C293        C  0.35725381  0.20139134  0.10041892    -0.32800
C294        C  0.32042655  0.16815672  0.07443220     0.01200
C295        C  0.30849314  0.11977355  0.07488964    -0.24100
C296        C  0.41555994  0.06175102  0.16996844    -0.28700
C297        C  0.45489887  0.09535056  0.19358867     0.06900
C298        C  0.46424706  0.14270854  0.19687094    -0.27400
H299        H  0.34068345  0.00511474  0.12158249     0.11600
H300        H  0.29394214  0.03047491  0.08005521     0.12700
H301        H  0.47540865  0.23134387  0.19477446     0.11800
H302        H  0.42904727  0.25691758  0.15261568     0.11000
H303        H  0.36621889  0.23864426  0.10052666     0.16400
H304        H  0.28059648  0.09411638  0.05462448     0.12300
H305        H  0.40768954  0.02487396  0.16813161     0.15200
H306        H  0.49436894  0.16847036  0.21534320     0.15000
C307        C  0.42077618  0.32636181  0.38519359    -0.17900
C308        C  0.44008100  0.36149601  0.35416047    -0.20100
C309        C  0.42456505  0.39482524  0.34967164     0.20600
C310        C  0.39031960  0.39365230  0.37760184    -0.03000
C311        C  0.37070876  0.35810904  0.40877275    -0.06100
C312        C  0.38556320  0.32390043  0.41224779     0.20900
C313        C  0.33483494  0.35566304  0.43540263     0.19000
C314        C  0.32034010  0.38984362  0.43178289    -0.17500
C315        C  0.33985632  0.42511534  0.40100006    -0.19800
C316        C  0.37402771  0.42664299  0.37329220     0.20500
C317        C  0.39033039  0.45895001  0.34014158    -0.32800
C318        C  0.42243609  0.45858424  0.31118427     0.01200
C319        C  0.44077861  0.42772233  0.31666884    -0.24100
C320        C  0.36364959  0.28686120  0.44172524    -0.28700
C321        C  0.32647404  0.28316486  0.46708720     0.06900
C322        C  0.31286242  0.31811205  0.46423802    -0.27400
H323        H  0.43262646  0.30043429  0.38747073     0.11600
H324        H  0.46635545  0.36190468  0.33308637     0.12700
H325        H  0.29310451  0.38863578  0.45218294     0.11800
H326        H  0.32724036  0.45041317  0.39818328     0.11000
H327        H  0.37629520  0.48293301  0.33562102     0.16400
H328        H  0.46532028  0.42744042  0.29401662     0.12300
H329        H  0.37379702  0.25959748  0.44366036     0.15200
H330        H  0.28427538  0.31528258  0.48389871     0.15000
C331        C  0.23263072  0.41398215  0.16817580    -0.17900
C332        C  0.19856028  0.39398240  0.13670994    -0.20100
C333        C  0.21190439  0.40980952  0.09611193     0.20600
C334        C  0.25929900  0.44792219  0.08742033    -0.03000
C335        C  0.29371716  0.46807537  0.11923640    -0.06100
C336        C  0.28063213  0.45005312  0.15954598     0.20900
C337        C  0.34154766  0.50509475  0.11049954     0.19000
C338        C  0.35406698  0.52298275  0.07025576    -0.17500
C339        C  0.32006751  0.50277930  0.03864165    -0.19800
C340        C  0.27288135  0.46455487  0.04673783     0.20500
C341        C  0.23968021  0.44138334  0.01480525    -0.32800
C342        C  0.19337344  0.40140475  0.02305475     0.01200
C343        C  0.17928480  0.38693386  0.06393449    -0.24100
C344        C  0.31612959  0.46668918  0.19017593    -0.28700
C345        C  0.36519462  0.50020792  0.18100443     0.06900
C346        C  0.37654657  0.52188911  0.14167387    -0.27400
H347        H  0.22181351  0.40008905  0.19907163     0.11600
H348        H  0.16213935  0.36514403  0.14396837     0.12700
H349        H  0.39058345  0.55156953  0.06299266     0.11800
H350        H  0.33107063  0.51627482  0.00765147     0.11000
H351        H  0.25068633  0.45287552  0.48336170     0.16400
H352        H  0.14323120  0.35691814  0.07055451     0.12300
H353        H  0.30510224  0.45249568  0.22084332     0.15200
H354        H  0.41335866  0.54996850  0.13459565     0.15000
C355        C  0.97985779  0.41074707  0.32582683    -0.17900
C356        C  0.99346772  0.38311475  0.34909525    -0.20100
C357        C  0.04249773  0.40049919  0.35756392     0.20600
C358        C  0.07833047  0.44552833  0.34138025    -0.03000
C359        C  0.06457794  0.47351200  0.31789445    -0.06100
C360        C  0.01507667  0.45618908  0.31068977     0.20900
C361        C  0.10012936  0.51960067  0.30315376     0.19000
C362        C  0.14924565  0.53630566  0.31079778    -0.17500
C363        C  0.16290829  0.50841975  0.33393121    -0.19800
C364        C  0.12768279  0.46343303  0.35002757     0.20500
C365        C  0.14070997  0.43691792  0.37591145    -0.32800
C366        C  0.10494572  0.39302165  0.39367476     0.01200
C367        C  0.05604325  0.37453696  0.38337665    -0.24100
C368        C  0.00140578  0.48542747  0.29005291    -0.28700
C369        C  0.03631423  0.53208674  0.27669086     0.06900
C370        C  0.08570768  0.54876684  0.28256488    -0.27400
H371        H  0.94168886  0.39703690  0.32043374     0.11600
H372        H  0.96554981  0.34859116  0.36122465     0.12700
H373        H  0.17706469  0.57140035  0.29961281     0.11800
H374        H  0.20100443  0.52259987  0.34009780     0.11000
H375        H  0.17856515  0.45107572  0.38318343     0.16400
H376        H  0.02814735  0.34110885  0.39719821     0.12300
H377        H  0.96321548  0.47280877  0.28628446     0.15200
H378        H  0.11252610  0.58494893  0.27271849     0.15000
C379        C  0.79689986  0.32960533  0.13467292    -0.17900
C380        C  0.81187171  0.37024626  0.15927679    -0.20100
C381        C  0.86105231  0.40046559  0.16894458     0.20600
C382        C  0.89517546  0.38879997  0.15418794    -0.03000
C383        C  0.88020226  0.34828851  0.12881302    -0.06100
C384        C  0.83086634  0.31870733  0.11879244     0.20900
C385        C  0.91479179  0.33800512  0.11286133     0.19000
C386        C  0.96372847  0.36719524  0.12351117    -0.17500
C387        C  0.97836638  0.40659147  0.14929608    -0.19800
C388        C  0.94445774  0.41799609  0.16427217     0.20500
C389        C  0.95936996  0.45870309  0.18850196    -0.32800
C390        C  0.92645044  0.47276464  0.20142992     0.01200
C391        C  0.87690257  0.44260033  0.19225924    -0.24100
C392        C  0.81654896  0.27940298  0.09246461    -0.28700
C393        C  0.85108657  0.26997186  0.07491270     0.06900
C394        C  0.90016756  0.29943280  0.08583422    -0.27400
H395        H  0.75876903  0.30716490  0.12743031     0.11600
H396        H  0.78500478  0.37826787  0.17044679     0.12700
H397        H  0.99075424  0.35973337  0.11169575     0.11800
H398        H  0.01643561  0.42875806  0.15686133     0.11000
H399        H  0.99714670  0.47937260  0.19703655     0.16400
H400        H  0.85093667  0.45242746  0.20223611     0.12300
H401        H  0.77846468  0.25653874  0.08529133     0.15200
H402        H  0.92749670  0.29353794  0.07230097     0.15000
C403        C  0.58061537  0.10749294  0.41381955    -0.17900
C404        C  0.61556842  0.11984836  0.44442148    -0.20100
C405        C  0.66517824  0.14592726  0.43466267     0.20600
C406        C  0.67972268  0.16134608  0.39385215    -0.03000
C407        C  0.64445388  0.14939218  0.36306389    -0.06100
C408        C  0.59464199  0.12129480  0.37291449     0.20900
C409        C  0.65911191  0.16326640  0.32206518     0.19000
C410        C  0.70867519  0.19070393  0.31244999    -0.17500
C411        C  0.74356124  0.20236273  0.34287643    -0.19800
C412        C  0.72947581  0.18697447  0.38345800     0.20500
C413        C  0.76416354  0.19555297  0.41356075    -0.32800
C414        C  0.74984661  0.17947328  0.45400453     0.01200
C415        C  0.70046298  0.15563200  0.46462807    -0.24100
C416        C  0.56002769  0.10471095  0.34136502    -0.28700
C417        C  0.57484475  0.11535398  0.30023972     0.06900
C418        C  0.62416117  0.14659527  0.29102828    -0.27400
H419        H  0.54260099  0.08603598  0.42197874     0.11600
H420        H  0.60374373  0.10786904  0.47560437     0.12700
H421        H  0.72047839  0.20178828  0.28113797     0.11800
H422        H  0.78159488  0.22244469  0.33446517     0.11000
H423        H  0.80235479  0.21431727  0.40556438     0.16400
H424        H  0.68956534  0.14336954  0.49592825     0.12300
H425        H  0.52221794  0.07991298  0.34850681     0.15200
H426        H  0.63559123  0.15458693  0.25927727     0.15000
C427        C  0.78679585  0.18697913  0.98484725     0.03100
C428        C  0.81201791  0.16219232  0.98172208    -0.13100
C429        C  0.84971515  0.17160310  0.50898267     0.00600
C430        C  0.86169979  0.20604493  0.53984133    -0.11600
C431        C  0.83647587  0.23116750  0.54371375     0.03000
C432        C  0.79886741  0.22100353  0.01586416    -0.11000
H433        H  0.80318790  0.13660667  0.95718418     0.08600
H434        H  0.89051571  0.21286303  0.56093474     0.06200
H435        H  0.78019876  0.24102226  0.01692165     0.06000
C436        C  0.11784113  0.36842406  0.92564567     0.03100
C437        C  0.15126231  0.39570177  0.95649030    -0.13100
C438        C  0.16044420  0.37293395  0.48913056     0.00600
C439        C  0.13697629  0.32236413  0.49000421    -0.11600
C440        C  0.10368628  0.29465906  0.95956975     0.03000
C441        C  0.09398057  0.31767965  0.92760763    -0.11000
H442        H  0.16836524  0.43461753  0.95627527     0.08600
H443        H  0.14398490  0.30433772  0.51490026     0.06200
H444        H  0.06793153  0.29605479  0.90436508     0.06000
C445        C  0.29531604  0.18393591  0.54568884     0.03100
C446        C  0.32205728  0.22616810  0.52203010    -0.13100
C447        C  0.29863158  0.24041828  0.99386886     0.00600
C448        C  0.24817837  0.21235276  0.98961715    -0.11600
C449        C  0.22106549  0.16947894  0.51216039     0.03000
C450        C  0.24480824  0.15547673  0.54019642    -0.11000
H451        H  0.36113261  0.24752931  0.52497366     0.08600
H452        H  0.23032436  0.22288044  0.96716710     0.06200
H453        H  0.22392578  0.12262407  0.55793994     0.06000
C454        C  0.15341868  0.90339040  0.93225459     0.03100
C455        C  0.12995321  0.93009597  0.93486022    -0.13100
C456        C  0.08861805  0.91349517  0.95953914     0.00600
C457        C  0.07185067  0.87102975  0.48268808    -0.11600
C458        C  0.09645694  0.84544870  0.48218349     0.03000
C459        C  0.13664064  0.86131105  0.95608965    -0.11000
H460        H  0.14328005  0.96310403  0.91722249     0.08600
H461        H  0.04104564  0.85943430  0.50298656     0.06200
H462        H  0.15574028  0.84167648  0.95512266     0.06000
C463        C  0.83849603  0.71805448  0.99203232     0.03100
C464        C  0.80093645  0.69354479  0.02087048    -0.13100
C465        C  0.78511710  0.71887383  0.54520561     0.00600
C466        C  0.80753249  0.76929437  0.54059150    -0.11600
C467        C  0.84505397  0.79430707  0.01220056     0.03000
C468        C  0.86002459  0.76841140  0.98808988    -0.11000
H469        H  0.78364208  0.65478628  0.02408366     0.08600
H470        H  0.79609552  0.78923616  0.55939489     0.06200
H471        H  0.88749433  0.78762043  0.96485019     0.06000
C472        C  0.64610749  0.89940446  0.50322456     0.03100
C473        C  0.62065768  0.85955462  0.97744687    -0.13100
C474        C  0.64516228  0.84999880  0.94665207     0.00600
C475        C  0.69561838  0.88008870  0.94223814    -0.11600
C476        C  0.72107976  0.92027957  0.96748486     0.03000
C477        C  0.69613452  0.93008122  0.49737129    -0.11000
H478        H  0.58194099  0.83577733  0.98148141     0.08600
H479        H  0.71500828  0.87195732  0.91956570     0.06200
H480        H  0.71616386  0.96087395  0.51718461     0.06000
O481        O  0.95051838  0.10631765  0.95435495    -0.88400
C482        C  0.04378852  0.11776621  0.54506903     0.87600
Mg483      Mg  0.87481957  0.05194056  0.95751885     1.58100
O484        O  0.05431899  0.06565007  0.95447750    -0.88200
O485        O  0.01364473  0.12883012  0.91472886    -0.75500
C486        C  0.86770136  0.84707272  0.50570456     0.92700
O487        O  0.92942279  0.08617250  0.55129459    -0.75300
O488        O  0.84362605  0.86775058  0.51266527    -0.82800
Mg489      Mg  0.98059368  0.14906181  0.50897273     1.58000
C490        C  0.06313243  0.94044358  0.96333941     0.92600
O491        O  0.03275326  0.21954668  0.97335967    -0.81100
H492        H  0.06621212  0.06866499  0.89416478    -0.06400
C493        C  0.97423191  0.97210678  0.54602448     0.87500
O494        O  0.88628930  0.00103870  0.91637707    -0.75600
O495        O  0.03331532  0.12652395  0.51090084    -0.88300
O496        O  0.08677134  0.98493632  0.97314789    -0.81100
C497        C  0.16858325  0.13869159  0.50431825     0.92700
C498        C  0.07749537  0.24174161  0.96333018     0.92600
Mg499      Mg  0.96213755  0.94011093  0.95715635     1.58000
O500        O  0.91049797  0.87008788  0.99109665    -0.81100
O501        O  0.01328774  0.00326112  0.91501790    -0.75300
O502        O  0.14573774  0.15875878  0.49114690    -0.81200
O503        O  0.92408516  0.17191288  0.50873879    -0.82900
O504        O  0.79718764  0.92746992  0.97622047    -0.81200
C505        C  0.04601088  0.04694874  0.92033008     0.87000
O506        O  0.90926756  0.96151415  0.95606967    -0.88300
O507        O  0.99246816  0.98234789  0.51140281    -0.88400
O508        O  0.93084640  0.96147213  0.55247668    -0.75500
Mg509      Mg  0.07658182  0.14072001  0.95655019     1.58000
O510        O  0.14805794  0.09320352  0.50898014    -0.82900
H511        H  0.94848596  0.11608672  0.89402255    -0.06600
O512        O  0.88940456  0.02337056  0.51204525    -0.88100
H513        H  0.87652612  0.02076310  0.57215630    -0.06400
H514        H  0.89853780  0.94889220  0.89606454    -0.06600
C515        C  0.89702627  0.04235052  0.54604346     0.87000
C516        C  0.96980605  0.11737031  0.92014935     0.87600
C517        C  0.89766758  0.96907379  0.92198359     0.87600
H518        H  0.99638249  0.97398983  0.57171051    -0.06600
O519        O  0.05513418  0.08568243  0.55041403    -0.75600
Mg520      Mg  0.86716858  0.94781962  0.51134968     1.58000
H521        H  0.04201810  0.13705736  0.57129069    -0.06600
C522        C  0.87845015  0.14783296  0.50297692     0.92600
O523        O  0.79520548  0.99440220  0.96255543    -0.82800
C524        C  0.77421963  0.94889330  0.96735005     0.92600
O525        O  0.10111241  0.22018834  0.95927250    -0.82800
Mg526      Mg  0.06804719  0.03589795  0.50885922     1.58200
O527        O  0.85696727  0.10446482  0.99020170    -0.81100
O528        O  0.01735626  0.91715357  0.95941441    -0.82800
C529        C  0.95248363  0.57900376  0.77429917     0.86400
C530        C  0.97249678  0.61561558  0.73920335    -0.53800
C531        C  0.99667373  0.60619553  0.71021028     0.09300
C532        C  0.99886105  0.56035332  0.71877766     0.20300
C533        C  0.92060971  0.52962447  0.75261709    -0.54500
C534        C  0.94545729  0.51969991  0.72339895     0.09400
C535        C  0.99591413  0.57623683  0.79049048    -0.54100
C536        C  0.01934085  0.56460612  0.76220101     0.10000
H537        H  0.96678985  0.64598288  0.73684876     0.14500
H538        H  0.02020513  0.55514319  0.69486341     0.00300
H539        H  0.88332284  0.50404487  0.76080674     0.14800
H540        H  0.00175633  0.57476868  0.82315415     0.14600
C541        C  0.51372799  0.02162436  0.71594842     0.86400
C542        C  0.55404867  0.05734456  0.74430640    -0.53800
C543        C  0.54187317  0.08462747  0.76732241     0.09300
C544        C  0.49010925  0.07454758  0.75925788     0.20300
C545        C  0.46942187  0.99232759  0.74418446    -0.54500
C546        C  0.45669586  0.01987868  0.76699462     0.09400
C547        C  0.50111506  0.05386700  0.69044225    -0.54100
C548        C  0.48682956  0.08000989  0.71270961     0.10000
H549        H  0.58942252  0.06100159  0.74700046     0.14500
H550        H  0.48116245  0.09838074  0.77657523     0.00300
H551        H  0.44991351  0.95324353  0.74540550     0.14800
H552        H  0.49905621  0.05288528  0.65724153     0.14600
C553        C  0.40598422  0.51138230  0.71156145     0.86400
C554        C  0.39352935  0.47430595  0.74625726    -0.53800
C555        C  0.43072174  0.48569136  0.77255053     0.09300
C556        C  0.47769530  0.53278303  0.76177784     0.20300
C557        C  0.42538787  0.56008727  0.73361795    -0.54500
C558        C  0.46237597  0.57056058  0.76034422     0.09400
C559        C  0.45090094  0.51467519  0.69137538    -0.54100
C560        C  0.48951991  0.52856985  0.71690551     0.10000
H561        H  0.35857073  0.44189076  0.75076923     0.14500
H562        H  0.50790538  0.54145589  0.78325734     0.00300
H563        H  0.41038902  0.58329924  0.72932957     0.14800
H564        H  0.45473653  0.51350561  0.65843560     0.14600
C565        C  0.64340648  0.94593366  0.64638366    -0.17900
C566        C  0.62400571  0.96140403  0.67688977    -0.20100
C567        C  0.58255736  0.96435904  0.66915599     0.20600
C568        C  0.55917051  0.94948704  0.63098638    -0.03000
C569        C  0.57879353  0.93398484  0.60013271    -0.06100
C570        C  0.62160938  0.93308613  0.60768719     0.20900
C571        C  0.55633925  0.92071479  0.56140577     0.19000
C572        C  0.51360767  0.92153014  0.55441003    -0.17500
C573        C  0.49389027  0.93641393  0.58516826    -0.19800
C574        C  0.51686422  0.95121374  0.62330445     0.20500
C575        C  0.49962958  0.96993232  0.65308200    -0.32800
C576        C  0.52603543  0.99035512  0.68932741     0.01200
C577        C  0.56550551  0.98401143  0.69822042    -0.24100
C578        C  0.64249299  0.92044168  0.57615951    -0.28700
C579        C  0.62129289  0.90879482  0.53705428     0.06900
C580        C  0.57765335  0.90801627  0.53013777    -0.27400
H581        H  0.67606578  0.94501725  0.65277234     0.11600
H582        H  0.64220707  0.97231394  0.70617331     0.12700
H583        H  0.49580245  0.91132762  0.52491881     0.11800
H584        H  0.46137367  0.93757999  0.57874603     0.11000
H585        H  0.46729776  0.97150552  0.64677983     0.16400
H586        H  0.58396312  0.99511119  0.72726840     0.12300
H587        H  0.67567246  0.92022243  0.58185466     0.15200
H588        H  0.56122892  0.89913907  0.00004995     0.15000
C589        C  0.59496545  0.78455281  0.80759542    -0.17900
C590        C  0.56775431  0.74575732  0.78142665    -0.20100
C591        C  0.53898155  0.69890094  0.79729207     0.20600
C592        C  0.53772239  0.69107652  0.84004188    -0.03000
C593        C  0.56472463  0.73028482  0.86647250    -0.06100
C594        C  0.59361927  0.77721108  0.85010934     0.20900
C595        C  0.56285816  0.72249786  0.90923486     0.19000
C596        C  0.53475729  0.67554378  0.92508331    -0.17500
C597        C  0.50867517  0.63658196  0.89884880    -0.19800
C598        C  0.50982510  0.64402011  0.85636975     0.20500
C599        C  0.48412684  0.60515051  0.82988480    -0.32800
C600        C  0.48508586  0.61274230  0.78744372     0.01200
C601        C  0.51210393  0.65960725  0.77121759    -0.24100
C602        C  0.62049769  0.81596577  0.87655106    -0.28700
C603        C  0.61802023  0.80854909  0.91912921     0.06900
C604        C  0.58911221  0.76181083  0.93532118    -0.27400
H605        H  0.61697535  0.82036059  0.79458060     0.11600
H606        H  0.56939885  0.75238370  0.74872299     0.12700
H607        H  0.53309799  0.66891777  0.95779639     0.11800
H608        H  0.48749048  0.60062077  0.91178496     0.11000
H609        H  0.46368480  0.56876708  0.84217648     0.16400
H610        H  0.51359985  0.66513145  0.73834095     0.12300
H611        H  0.64264839  0.85212275  0.86416337     0.15200
H612        H  0.58753573  0.75612746  0.96820056     0.15000
C613        C  0.69434363  0.59058806  0.64964898    -0.17900
C614        C  0.65348702  0.56444734  0.67481923    -0.20100
C615        C  0.61753743  0.57693420  0.67675054     0.20600
C616        C  0.62380969  0.61726368  0.65405031    -0.03000
C617        C  0.66467951  0.64325575  0.62839633    -0.06100
C618        C  0.69985065  0.62950800  0.62576588     0.20900
C619        C  0.66958597  0.68218594  0.60453653     0.19000
C620        C  0.63462223  0.69582489  0.60740874    -0.17500
C621        C  0.59443359  0.67040598  0.63303711    -0.19800
C622        C  0.58839552  0.63070888  0.65585688     0.20500
C623        C  0.54642205  0.60297043  0.67896368    -0.32800
C624        C  0.53831748  0.56099903  0.69941585     0.01200
C625        C  0.57455311  0.54885390  0.69947921    -0.24100
C626        C  0.73942496  0.65448633  0.59887050    -0.28700
C627        C  0.74401561  0.69281352  0.57442020     0.06900
C628        C  0.70889056  0.70637985  0.57765233    -0.27400
H629        H  0.72118696  0.57975865  0.64825698     0.11600
H630        H  0.64957722  0.53390237  0.69218544     0.12700
H631        H  0.63804714  0.72578831  0.58943027     0.11800
H632        H  0.56745855  0.68109459  0.63427183     0.11000
H633        H  0.51855531  0.61254458  0.67933697     0.16400
H634        H  0.56833977  0.51664462  0.71554412     0.12300
H635        H  0.76663564  0.64416351  0.59699590     0.15200
H636        H  0.71156332  0.73526380  0.55853659     0.15000
C637        C  0.98260409  0.70162752  0.87767308    -0.17900
C638        C  0.96782338  0.71995811  0.90941287    -0.20100
C639        C  0.91952125  0.69503663  0.92291213     0.20600
C640        C  0.88600569  0.65060769  0.90501324    -0.03000
C641        C  0.90115412  0.63171490  0.87320603    -0.06100
C642        C  0.94945764  0.65781214  0.85925893     0.20900
C643        C  0.86792849  0.58729133  0.85495842     0.19000
C644        C  0.81980449  0.56204409  0.86924666    -0.17500
C645        C  0.80457935  0.58114450  0.90041889    -0.19800
C646        C  0.83727050  0.62569938  0.91823517     0.20500
C647        C  0.82191250  0.64661314  0.94796499    -0.32800
C648        C  0.85493481  0.69201306  0.96479053     0.01200
C649        C  0.90400090  0.71475314  0.95304196    -0.24100
C650        C  0.96401793  0.63993936  0.82699697    -0.28700
C651        C  0.93170966  0.59556520  0.80835799     0.06900
C652        C  0.88340276  0.56923361  0.82271364    -0.27400
H653        H  0.01994952  0.72191252  0.86733025     0.11600
H654        H  0.99398056  0.75416111  0.92280562     0.12700
H655        H  0.79370968  0.52779463  0.85590974     0.11800
H656        H  0.76705110  0.56128233  0.91027836     0.11000
H657        H  0.78397734  0.62855209  0.95654580     0.16400
H658        H  0.93013551  0.74886487  0.96651321     0.12300
H659        H  0.00127047  0.66059142  0.81635380     0.15200
H660        H  0.85775994  0.53515571  0.80905523     0.15000
C661        C  0.96980902  0.70119976  0.55570554    -0.17900
C662        C  0.95597187  0.66735154  0.58751218    -0.20100
C663        C  0.99106855  0.66638155  0.61251946     0.20600
C664        C  0.04068937  0.69910974  0.60489501    -0.03000
C665        C  0.05465386  0.73339615  0.57282531    -0.06100
C666        C  0.01898849  0.73471204  0.54842964     0.20900
C667        C  0.10418153  0.76715305  0.56591870     0.19000
C668        C  0.13926776  0.76587976  0.59074704    -0.17500
C669        C  0.12544393  0.73186186  0.62249778    -0.19800
C670        C  0.07626162  0.69853103  0.63006800     0.20500
C671        C  0.06188627  0.66580120  0.66317233    -0.32800
C672        C  0.01249442  0.63453170  0.67166373     0.01200
C673        C  0.97736637  0.63440094  0.64587881    -0.24100
C674        C  0.03301965  0.77029181  0.51792041    -0.28700
C675        C  0.08222839  0.80469338  0.51133470     0.06900
C676        C  0.11764781  0.80237147  0.53506821    -0.27400
H677        H  0.94199225  0.70165883  0.53721721     0.11600
H678        H  0.91773707  0.64239220  0.59296127     0.12700
H679        H  0.17744995  0.79161549  0.58592357     0.11800
H680        H  0.15322539  0.73208712  0.64152873     0.11000
H681        H  0.08884977  0.66619030  0.68344910     0.16400
H682        H  0.93924317  0.61033455  0.65272695     0.12300
H683        H  0.00563591  0.77185014  0.49975746     0.15200
H684        H  0.15561016  0.82921775  0.53064350     0.15000
C685        C  0.28786008  0.89185744  0.80212868    -0.17900
C686        C  0.24508246  0.87607976  0.82459216    -0.20100
C687        C  0.24228306  0.90581518  0.85428647     0.20600
C688        C  0.28302953  0.95185106  0.86145784    -0.03000
C689        C  0.32641264  0.96735650  0.83933014    -0.06100
C690        C  0.32877720  0.93742516  0.80929306     0.20900
C691        C  0.36735132  0.01289842  0.84722901     0.21300
C692        C  0.36460793  0.04272924  0.87682450    -0.17500
C693        C  0.32146782  0.02774243  0.89825763    -0.19800
C694        C  0.28054698  0.98239742  0.89086260     0.20500
C695        C  0.23744295  0.96683282  0.91277759    -0.32800
C696        C  0.19719600  0.92065677  0.90652405     0.01200
C697        C  0.19971431  0.89028200  0.87721586    -0.24100
C698        C  0.37167036  0.95393651  0.78648132    -0.28700
C699        C  0.41263373  0.99980167  0.79375325     0.06900
C700        C  0.41020328  0.02827760  0.82506432    -0.27400
H701        H  0.28895795  0.86835896  0.77919220     0.11600
H702        H  0.21413247  0.84066804  0.81864134     0.12700
H703        H  0.39576618  0.07789992  0.88315539     0.11800
H704        H  0.32019319  0.05153072  0.92081184     0.11000
H705        H  0.23558708  0.99000757  0.93568015     0.16400
H706        H  0.16851981  0.85466493  0.87236326     0.12300
H707        H  0.37236979  0.93156388  0.76230282     0.15200
H708        H  0.44143960  0.06289135  0.83228056     0.15000
C709        C  0.34930790  0.04220845  0.62306516    -0.17900
C710        C  0.32268105  0.05667748  0.59935709    -0.20100
C711        C  0.33367609  0.10467093  0.60000172     0.20600
C712        C  0.37118767  0.13827377  0.62544412    -0.03000
C713        C  0.39798500  0.12359922  0.64955684    -0.06100
C714        C  0.38727022  0.07549598  0.64782614     0.20900
C715        C  0.43617686  0.15722378  0.67457211     0.19000
C716        C  0.44638486  0.20501354  0.67574924    -0.17500
C717        C  0.41992714  0.21964458  0.65165202    -0.19800
C718        C  0.38266098  0.18669247  0.62603487     0.20500
C719        C  0.35725524  0.20138950  0.60044048    -0.32800
C720        C  0.32043006  0.16816230  0.57444827     0.01200
C721        C  0.30849439  0.11977833  0.57489724    -0.24100
C722        C  0.41555001  0.06172727  0.66995876    -0.28700
C723        C  0.45488639  0.09531938  0.69358559     0.06900
C724        C  0.46423559  0.14267700  0.69687714    -0.27400
H725        H  0.34067681  0.00510497  0.62156445     0.11600
H726        H  0.29393979  0.03047738  0.58004544     0.12700
H727        H  0.47540061  0.23131407  0.69479776     0.11800
H728        H  0.42904464  0.25690061  0.65264618     0.11000
H729        H  0.36622197  0.23864299  0.60055483     0.16400
H730        H  0.28059935  0.09412681  0.55462796     0.12300
H731        H  0.40767813  0.02485016  0.66811475     0.15200
H732        H  0.49435539  0.16843319  0.71535420     0.15000
C733        C  0.42074861  0.32632350  0.88516083    -0.17900
C734        C  0.44005657  0.36145853  0.85412869    -0.20100
C735        C  0.42454740  0.39479333  0.84964264     0.20600
C736        C  0.39030382  0.39362344  0.87757322    -0.03000
C737        C  0.37068893  0.35807866  0.90874243    -0.06100
C738        C  0.38553878  0.32386639  0.91221628     0.20900
C739        C  0.33481742  0.35563630  0.93537303     0.19000
C740        C  0.32032743  0.38982071  0.93175460    -0.17500
C741        C  0.33984881  0.42509492  0.90097413    -0.19800
C742        C  0.37401944  0.42662049  0.87326673     0.20500
C743        C  0.39032982  0.45893288  0.84012012    -0.32800
C744        C  0.42243414  0.45856487  0.81116294     0.01200
C745        C  0.44076732  0.42769462  0.81664303    -0.24100
C746        C  0.36362523  0.28682930  0.94169518    -0.28700
C747        C  0.32645410  0.28313836  0.96705957     0.06900
C748        C  0.31284418  0.31808673  0.96420948    -0.27400
H749        H  0.43259487  0.30039260  0.88743687     0.11600
H750        H  0.46632922  0.36186469  0.83305404     0.12700
H751        H  0.29309324  0.38861524  0.95215483     0.11800
H752        H  0.32723800  0.45039720  0.89815917     0.11000
H753        H  0.37630254  0.48292308  0.83560282     0.16400
H754        H  0.46530838  0.42741170  0.79399075     0.12300
H755        H  0.37377037  0.25956378  0.94363071     0.15200
H756        H  0.28425987  0.31526067  0.98387160     0.15000
C757        C  0.23265405  0.41403300  0.66817003    -0.17900
C758        C  0.19858293  0.39402941  0.63670486    -0.20100
C759        C  0.21192977  0.40984108  0.59610391     0.20600
C760        C  0.25932890  0.44794211  0.58740776    -0.03000
C761        C  0.29374790  0.46809869  0.61922301    -0.06100
C762        C  0.28065915  0.45009197  0.65953645     0.20900
C763        C  0.34158241  0.50510602  0.61048201     0.19000
C764        C  0.35410563  0.52297906  0.57023444    -0.17500
C765        C  0.32010521  0.50277225  0.53862131    -0.19800
C766        C  0.27291423  0.46455973  0.54672211     0.20500
C767        C  0.23971007  0.44138572  0.51479185    -0.32800
C768        C  0.19339757  0.40141894  0.52304682     0.01200
C769        C  0.17930770  0.38696177  0.56392860    -0.24100
C770        C  0.31615640  0.46673006  0.69016692    -0.28700
C771        C  0.36522451  0.50023325  0.68099171     0.06900
C772        C  0.37658116  0.52190261  0.64165654    -0.27400
H773        H  0.22183414  0.40015185  0.69906849     0.11600
H774        H  0.16215870  0.36520025  0.64396670     0.12700
H775        H  0.39062532  0.55155616  0.56296809     0.11800
H776        H  0.33111100  0.51625594  0.50762848     0.11000
H777        H  0.25065570  0.45288425  0.98337701     0.16400
H778        H  0.14325037  0.35695447  0.57055207     0.12300
H779        H  0.30512814  0.45254881  0.72083750     0.15200
H780        H  0.41339506  0.54997436  0.63457521     0.15000
C781        C  0.97985249  0.41075073  0.82583773    -0.17900
C782        C  0.99346087  0.38311676  0.84910544    -0.20100
C783        C  0.04249106  0.40049644  0.85756916     0.20600
C784        C  0.07832529  0.44552271  0.84138181    -0.03000
C785        C  0.06457425  0.47350793  0.81789654    -0.06100
C786        C  0.01507298  0.45618953  0.81069626     0.20900
C787        C  0.10012742  0.51959359  0.80315154     0.19000
C788        C  0.14924369  0.53629404  0.81079113    -0.17500
C789        C  0.16290482  0.50840679  0.83392451    -0.19800
C790        C  0.12767786  0.46342309  0.85002490     0.20500
C791        C  0.14070390  0.43690685  0.87590866    -0.32800
C792        C  0.10493832  0.39301305  0.89367444     0.01200
C793        C  0.05603562  0.37453241  0.88338044    -0.24100
C794        C  0.00140416  0.48542928  0.79005903    -0.28700
C795        C  0.03631454  0.53208604  0.77669326     0.06900
C796        C  0.08570774  0.54876149  0.78256279    -0.27400
H797        H  0.94168339  0.39704420  0.82044835     0.11600
H798        H  0.96554188  0.34859567  0.86123803     0.12700
H799        H  0.17706396  0.57138620  0.79960279     0.11800
H800        H  0.20100107  0.52258355  0.84008767     0.11000
H801        H  0.17855908  0.45106165  0.88317875     0.16400
H802        H  0.02813922  0.34110604  0.89720441     0.12300
H803        H  0.96321413  0.47281394  0.78629304     0.15200
H804        H  0.11252784  0.58494156  0.77271302     0.15000
C805        C  0.79689396  0.32957832  0.63471699    -0.17900
C806        C  0.81186900  0.37022358  0.65931611    -0.20100
C807        C  0.86105284  0.40045344  0.66896790     0.20600
C808        C  0.89517596  0.38879272  0.65420226    -0.03000
C809        C  0.88019929  0.34827675  0.62883232    -0.06100
C810        C  0.83086023  0.31868636  0.61882549     0.20900
C811        C  0.91478855  0.33799888  0.61287077     0.19000
C812        C  0.96372845  0.36719787  0.62350695    -0.17500
C813        C  0.97837006  0.40659846  0.64928714    -0.19800
C814        C  0.94446156  0.41799859  0.66427186     0.20500
C815        C  0.95937710  0.45871068  0.68849573    -0.32800
C816        C  0.92645687  0.47276832  0.70143083     0.01200
C817        C  0.87690598  0.44259387  0.69227512    -0.24100
C818        C  0.81653970  0.27937992  0.59249910    -0.28700
C819        C  0.85107700  0.26995533  0.57493678     0.06900
C820        C  0.90016073  0.29942381  0.58584651    -0.27400
H821        H  0.75876074  0.30713037  0.62748597     0.11600
H822        H  0.78500199  0.37824081  0.67049414     0.12700
H823        H  0.99075408  0.35973999  0.61168375     0.11800
H824        H  0.01644188  0.42877237  0.65684127     0.11000
H825        H  0.99715634  0.47938567  0.69702059     0.16400
H826        H  0.85093882  0.45241644  0.70225831     0.12300
H827        H  0.77845394  0.25651001  0.58533387     0.15200
H828        H  0.92748902  0.29353354  0.57230491     0.15000
C829        C  0.58062439  0.10751149  0.91380606    -0.17900
C830        C  0.61557975  0.11987347  0.94440701    -0.20100
C831        C  0.66518869  0.14594110  0.93464411     0.20600
C832        C  0.67973031  0.16134232  0.89382997    -0.03000
C833        C  0.64445927  0.14938158  0.86304246    -0.06100
C834        C  0.59464776  0.12129515  0.87289774     0.20900
C835        C  0.65911417  0.16323792  0.82204068     0.19000
C836        C  0.70867693  0.19066518  0.81242103    -0.17500
C837        C  0.74356515  0.20233066  0.84284680    -0.19800
C838        C  0.72948246  0.18695945  0.88343198     0.20500
C839        C  0.76417162  0.19554321  0.91353488    -0.32800
C840        C  0.74985715  0.17948024  0.95398243     0.01200
C841        C  0.70047496  0.15565134  0.96460936    -0.24100
C842        C  0.56002999  0.10470383  0.84135064    -0.28700
C843        C  0.57484342  0.11532777  0.80022324     0.06900
C844        C  0.62416026  0.14655926  0.79100617    -0.27400
H845        H  0.54261044  0.08606337  0.92196901     0.11600
H846        H  0.60375734  0.10790791  0.97559270     0.12700
H847        H  0.72047771  0.20173594  0.78110664     0.11800
H848        H  0.78159802  0.22240404  0.83443244     0.11000
H849        H  0.80236188  0.21429824  0.90553578     0.16400
H850        H  0.68957924  0.14340191  0.99591251     0.12300
H851        H  0.52221939  0.07991524  0.84849713     0.15200
H852        H  0.63558747  0.15453777  0.75925369     0.15000
loop_ 
_geom_bond_atom_site_label_1 
_geom_bond_atom_site_label_2 
_geom_bond_distance 
_geom_bond_site_symmetry_2 
_ccdc_geom_bond_type 
C1            C2   1.403       .  A
C1            C6   1.402       .  A
C1          C414   1.480       .  S
C2          C429   1.405       .  A
C2            H7   1.084       .  S
C3            C4   1.407       .  A
C3          C428   1.405   1_554  A
C3           C96   1.484       .  S
C4            C5   1.414       .  A
C4            H8   1.082       .  S
C5          C432   1.410       .  A
C5          C393   1.499       .  S
C6          C431   1.410       .  A
C6            H9   1.083       .  S
C10          C11   1.410       .  A
C10          C15   1.410       .  A
C10         C366   1.488       .  S
C11         C438   1.404       .  A
C11          H16   1.083       .  S
C12          C13   1.405       .  A
C12         C437   1.404       .  A
C12         C342   1.487   1_556  S
C13         C440   1.402       .  A
C13          H17   1.084   1_556  S
C14          C15   1.401       .  A
C14         C439   1.402       .  A
C14          C72   1.472       .  S
C15          H18   1.083       .  S
C19          C20   1.407       .  A
C19          C24   1.409       .  A
C19         C294   1.484       .  S
C20         C447   1.402   1_554  A
C20          H25   1.084       .  S
C21          C22   1.402       .  A
C21         C446   1.402       .  A
C21         C321   1.479       .  S
C22         C449   1.403       .  A
C22          H26   1.084       .  S
C23          C24   1.403       .  A
C23         C448   1.403   1_554  A
C23          C71   1.477       .  S
C24          H27   1.083       .  S
C28          C29   1.407       .  A
C28          C33   1.406       .  A
C28         C270   1.478       .  S
C29          C30   1.402       .  A
C29          H34   1.084       .  S
C30         C457   1.404       .  A
C30          C64   1.473       .  S
C31          C32   1.404       .  A
C31         C456   1.404       .  A
C31          H35   1.084   1_556  S
C32         C459   1.404       .  A
C32         C249   1.487   1_556  S
C33         C458   1.404       .  A
C33          H36   1.084       .  S
C37          C38   1.408       .  A
C37          C42   1.409       .  A
C37         C222   1.497       .  S
C38         C465   1.411       .  A
C38          H43   1.083       .  S
C39          C40   1.410       .  A
C39         C464   1.411       .  A
C39         C201   1.488       .  S
C40         C467   1.400       .  A
C40          H44   1.083       .  S
C41          C42   1.404       .  A
C41         C466   1.400       .  A
C41         C486   1.484       .  S
C42          H45   1.083       .  S
C46          C51   1.403   1_554  A
C46         C473   1.405   1_554  A
C46         C153   1.483       .  S
C47          C48   1.407       .  A
C47         C472   1.405       .  A
C47          H52   1.084       .  S
C48          C49   1.406       .  A
C48         C177   1.478       .  S
C49          C50   1.401       .  A
C49          H53   1.084       .  S
C50         C477   1.400       .  A
C50          C98   1.467       .  S
C51         C476   1.400       .  A
C51          H54   1.085   1_556  S
O55         Mg57   2.152       .  S
O55        Mg489   2.166       .  S
O55          C90   1.236       .  S
C56          H95   1.081       .  S
C56          O69   1.237       .  S
C56          O93   1.271       .  A
Mg57        O512   2.157       .  S
Mg57        O101   2.315       .  S
Mg57         O97   2.270   1_545  S
Mg57         O68   2.300       .  S
O58         Mg83   2.149       .  S
O58        Mg526   2.162       .  S
O58          C79   1.235       .  S
O59          C90   1.271   1_455  A
O59         Mg83   2.303       .  S
C60         C467   1.484       .  S
C60          O62   1.274       .  A
C60         O500   1.273   1_554  A
O61          C89   1.269       .  A
O61         Mg63   2.298       .  S
O62         Mg94   2.292       .  S
Mg63         O69   2.156   1_655  S
Mg63        O481   2.166   1_554  S
Mg63         O77   2.280       .  S
Mg63        O491   2.324   1_654  S
C64         O102   1.270       .  A
C64          O70   1.278       .  A
O65          C72   1.276       .  A
O65        Mg489   2.324   1_455  S
H66          C79   1.081       .  S
C67          H92   1.081       .  S
C67          O81   1.236       .  S
C67          O82   1.269       .  A
O68          C91   1.270   1_545  A
O69        Mg509   2.152   1_554  S
O70        Mg526   2.338   1_565  S
C71          O84   1.273       .  A
C71          O76   1.273   1_554  A
C72          O99   1.271       .  A
Mg73         O80   2.134       .  S
Mg73        O507   2.150       .  S
Mg73         O74   2.284       .  S
Mg73         O75   2.298   1_665  S
Mg73        O102   2.243   1_655  S
O74         C486   1.273       .  A
O75          C79   1.269       .  A
O76        Mg509   2.286       .  S
O77          C96   1.274       .  A
O78          C98   1.274       .  A
O78        Mg520   2.300       .  S
O80        Mg520   2.159       .  S
O80          C91   1.235       .  S
O81        Mg100   2.143   1_665  S
O81        Mg499   2.150   1_554  S
O82         Mg94   2.293       .  S
Mg83        O495   2.152       .  S
Mg83         O99   2.268       .  S
Mg83        O502   2.286       .  S
O84        Mg100   2.272       .  S
H85          C90   1.081       .  S
O86         Mg94   2.162   1_545  S
O86        Mg483   2.157   1_554  S
O86          C89   1.235       .  S
H87          C89   1.081       .  S
H88          C91   1.081       .  S
O93        Mg100   2.304       .  S
Mg94        O506   2.159   1_554  S
Mg94        O504   2.300   1_554  S
C96         O527   1.277   1_554  A
O97          C98   1.273       .  A
Mg100       O484   2.162   1_554  S
Mg100       O496   2.338   1_544  S
O101        C522   1.277       .  A
C103        C104   1.525       .  S
C103        C109   1.535       .  S
C103        C107   1.562       .  S
C103        C225   1.530       .  S
C104        H111   1.087       .  S
C104        C105   1.355       .  D
C105        C106   1.540       .  S
C105        C246   1.479   1_655  S
C106        C110   1.540   1_655  S
C106        C108   1.543       .  S
C106        H112   1.108   1_655  S
C107        H113   1.083       .  S
C107        C108   1.384       .  D
C108        C390   1.501       .  S
C109        H114   1.088   1_655  S
C109        C110   1.362   1_655  D
C110        C369   1.482       .  S
C115        C116   1.534       .  S
C115        C121   1.535       .  S
C115        C119   1.543   1_545  S
C115        C150   1.533   1_545  S
C116        H123   1.083       .  S
C116        C117   1.362       .  D
C117        C118   1.544       .  S
C117        C417   1.483       .  S
C118        C122   1.539       .  S
C118        C120   1.545       .  S
C118        H124   1.107       .  S
C119        H125   1.085       .  S
C119        C120   1.376   1_565  D
C120        C273   1.497   1_545  S
C121        H126   1.086       .  S
C121        C122   1.362       .  D
C122        C297   1.482       .  S
C127        C128   1.538       .  S
C127        C133   1.538       .  S
C127        C131   1.547       .  S
C127        C345   1.536       .  S
C128        H135   1.083       .  S
C128        C129   1.361       .  D
C129        C130   1.535       .  S
C129        C318   1.474       .  S
C130        C134   1.539       .  S
C130        C132   1.530       .  S
C130        H136   1.111       .  S
C131        H137   1.086       .  S
C131        C132   1.371       .  D
C132        C174   1.474       .  S
C133        H138   1.086       .  S
C133        C134   1.367       .  D
C134        C198   1.480       .  S
C139        C140   1.398       .  A
C139        C144   1.403       .  A
C139        H155   1.083       .  S
C140        C141   1.404       .  A
C140        H156   1.084       .  S
C141        C151   1.403       .  A
C141        C142   1.410       .  A
C142        C148   1.409       .  A
C142        C143   1.412       .  A
C143        C145   1.412       .  A
C143        C144   1.410       .  A
C144        C152   1.401       .  A
C145        C154   1.404       .  A
C145        C146   1.403       .  A
C146        C147   1.400       .  A
C146        H157   1.084       .  S
C147        C148   1.404       .  A
C147        H158   1.083       .  S
C148        C149   1.403       .  A
C149        C150   1.412       .  A
C149        H159   1.084       .  S
C150        C151   1.412       .  A
C151        H160   1.080       .  S
C152        C153   1.407       .  A
C152        H161   1.084       .  S
C153        C154   1.406       .  A
C154        H588   1.084       .  S
H162        C580   1.084       .  S
C163        C164   1.400       .  A
C163        C168   1.404       .  A
C163        H179   1.083       .  S
C164        C165   1.403       .  A
C164        H180   1.084       .  S
C165        C175   1.406       .  A
C165        C166   1.414       .  A
C166        C172   1.411       .  A
C166        C167   1.412       .  A
C167        C169   1.413       .  A
C167        C168   1.411       .  A
C168        C176   1.403       .  A
C169        C178   1.403       .  A
C169        C170   1.403       .  A
C170        C171   1.399       .  A
C170        H181   1.084       .  S
C171        C172   1.404       .  A
C171        H182   1.083       .  S
C172        C173   1.400       .  A
C173        C174   1.403       .  A
C173        H183   1.084       .  S
C174        C175   1.403       .  A
C175        H184   1.084       .  S
C176        C177   1.405       .  A
C176        H185   1.084       .  S
C177        C178   1.405       .  A
C178        H186   1.085       .  S
C187        C188   1.402       .  A
C187        C192   1.405       .  A
C187        H203   1.083       .  S
C188        C189   1.404       .  A
C188        H204   1.083       .  S
C189        C199   1.410       .  A
C189        C190   1.415       .  A
C190        C196   1.410       .  A
C190        C191   1.411       .  A
C191        C193   1.412       .  A
C191        C192   1.411       .  A
C192        C200   1.407       .  A
C193        C202   1.399       .  A
C193        C194   1.402       .  A
C194        C195   1.395       .  A
C194        H205   1.084       .  S
C195        C196   1.402       .  A
C195        H206   1.084       .  S
C196        C197   1.394       .  A
C197        C198   1.405       .  A
C197        H207   1.085       .  S
C198        C199   1.404       .  A
C199        H208   1.084       .  S
C200        C201   1.410       .  A
C200        H209   1.084       .  S
C201        C202   1.406       .  A
C202        H210   1.084       .  S
C211        C212   1.395       .  A
C211        C216   1.403       .  A
C211        H227   1.084   1_655  S
C212        C213   1.402       .  A
C212        H228   1.084       .  S
C213        C223   1.398       .  A
C213        C214   1.411       .  A
C214        C220   1.410       .  A
C214        C215   1.414       .  A
C215        C217   1.413       .  A
C215        C216   1.407       .  A
C216        C224   1.395       .  A
C217        C226   1.415       .  A
C217        C218   1.406       .  A
C218        C219   1.405       .  A
C218        H229   1.083       .  S
C219        C220   1.406       .  A
C219        H230   1.083       .  S
C220        C221   1.411       .  A
C221        C222   1.413       .  A
C221        H231   1.083       .  S
C222        C223   1.407       .  A
C223        H232   1.083       .  S
C224        C225   1.411       .  A
C224        H233   1.085   1_655  S
C225        C226   1.412       .  A
C226        H234   1.081       .  S
C235        C236   1.399       .  A
C235        C240   1.403   1_655  A
C235        H251   1.084       .  S
C236        C237   1.404       .  A
C236        H252   1.084       .  S
C237        C247   1.402       .  A
C237        C238   1.411   1_655  A
C238        C244   1.414       .  A
C238        C239   1.413       .  A
C239        C241   1.411       .  A
C239        C240   1.412       .  A
C240        C248   1.403       .  A
C241        C250   1.405       .  A
C241        C242   1.404       .  A
C242        C243   1.401       .  A
C242        H253   1.084       .  S
C243        C244   1.404       .  A
C243        H254   1.083       .  S
C244        C245   1.408       .  A
C245        C246   1.403       .  A
C245        H255   1.084       .  S
C246        C247   1.405   1_455  A
C247        H256   1.085       .  S
C248        C249   1.406       .  A
C248        H257   1.082   1_554  S
C249        C250   1.408       .  A
C250        H258   1.084       .  S
C259        C260   1.401       .  A
C259        C264   1.405       .  A
C259        H275   1.083       .  S
C260        C261   1.404       .  A
C260        H276   1.083       .  S
C261        C271   1.405       .  A
C261        C262   1.411       .  A
C262        C268   1.413       .  A
C262        C263   1.412       .  A
C263        C265   1.409   1_565  A
C263        C264   1.411       .  A
C264        C272   1.407       .  A
C265        C274   1.400       .  A
C265        C266   1.404       .  A
C266        C267   1.397       .  A
C266        H277   1.084       .  S
C267        C268   1.402   1_545  A
C267        H278   1.084       .  S
C268        C269   1.401       .  A
C269        C270   1.403       .  A
C269        H279   1.085       .  S
C270        C271   1.407       .  A
C271        H280   1.084       .  S
C272        C273   1.411       .  A
C272        H281   1.082       .  S
C273        C274   1.409   1_565  A
C274        H282   1.081       .  S
C283        C284   1.396       .  A
C283        C288   1.403       .  A
C283        H299   1.084       .  S
C284        C285   1.402       .  A
C284        H300   1.084       .  S
C285        C295   1.399       .  A
C285        C286   1.412       .  A
C286        C292   1.410       .  A
C286        C287   1.412       .  A
C287        C289   1.415       .  A
C287        C288   1.409       .  A
C288        C296   1.396       .  A
C289        C298   1.410       .  A
C289        C290   1.404       .  A
C290        C291   1.402       .  A
C290        H301   1.084       .  S
C291        C292   1.405       .  A
C291        H302   1.083       .  S
C292        C293   1.406       .  A
C293        C294   1.409       .  A
C293        H303   1.084       .  S
C294        C295   1.405       .  A
C295        H304   1.084       .  S
C296        C297   1.406       .  A
C296        H305   1.085       .  S
C297        C298   1.404       .  A
C298        H306   1.084       .  S
C307        C308   1.401       .  A
C307        C312   1.404       .  A
C307        H323   1.083       .  S
C308        C309   1.404       .  A
C308        H324   1.084       .  S
C309        C319   1.406       .  A
C309        C310   1.414       .  A
C310        C316   1.411       .  A
C310        C311   1.412       .  A
C311        C313   1.413       .  A
C311        C312   1.412       .  A
C312        C320   1.405       .  A
C313        C322   1.401       .  A
C313        C314   1.403       .  A
C314        C315   1.398       .  A
C314        H325   1.084       .  S
C315        C316   1.403       .  A
C315        H326   1.084       .  S
C316        C317   1.400       .  A
C317        C318   1.404       .  A
C317        H327   1.085       .  S
C318        C319   1.402       .  A
C319        H328   1.084       .  S
C320        C321   1.406       .  A
C320        H329   1.084       .  S
C321        C322   1.404       .  A
C322        H330   1.085       .  S
C331        C332   1.399       .  A
C331        C336   1.404       .  A
C331        H347   1.084       .  S
C332        C333   1.403       .  A
C332        H348   1.083       .  S
C333        C343   1.402       .  A
C333        C334   1.411       .  A
C334        C340   1.412       .  A
C334        C335   1.413       .  A
C335        C337   1.409       .  A
C335        C336   1.410       .  A
C336        C344   1.403       .  A
C337        C346   1.406       .  A
C337        C338   1.405       .  A
C338        C339   1.401       .  A
C338        H349   1.083       .  S
C339        C340   1.404       .  A
C339        H350   1.084       .  S
C340        C341   1.407       .  A
C341        C342   1.408       .  A
C341        H777   1.085   1_554  S
C342        C343   1.407       .  A
C343        H352   1.084       .  S
C344        C345   1.412       .  A
C344        H353   1.080       .  S
C345        C346   1.414       .  A
C346        H354   1.083       .  S
H351        C767   1.085       .  S
C355        C356   1.396       .  A
C355        C360   1.403   1_655  A
C355        H371   1.084       .  S
C356        C357   1.402   1_655  A
C356        H372   1.084       .  S
C357        C367   1.401       .  A
C357        C358   1.412       .  A
C358        C364   1.410       .  A
C358        C359   1.412       .  A
C359        C361   1.415       .  A
C359        C360   1.409       .  A
C360        C368   1.396       .  A
C361        C370   1.409       .  A
C361        C362   1.404       .  A
C362        C363   1.402       .  A
C362        H373   1.083       .  S
C363        C364   1.405       .  A
C363        H374   1.083       .  S
C364        C365   1.405       .  A
C365        C366   1.410       .  A
C365        H375   1.084       .  S
C366        C367   1.406       .  A
C367        H376   1.084       .  S
C368        C369   1.407       .  A
C368        H377   1.083   1_455  S
C369        C370   1.403       .  A
C370        H378   1.084       .  S
C379        C380   1.403       .  A
C379        C384   1.406       .  A
C379        H395   1.084       .  S
C380        C381   1.405       .  A
C380        H396   1.083       .  S
C381        C391   1.413       .  A
C381        C382   1.413       .  A
C382        C388   1.407       .  A
C382        C383   1.415       .  A
C383        C385   1.412       .  A
C383        C384   1.409       .  A
C384        C392   1.407       .  A
C385        C394   1.403       .  A
C385        C386   1.403       .  A
C386        C387   1.397       .  A
C386        H397   1.084       .  S
C387        C388   1.404       .  A
C387        H398   1.084   1_655  S
C388        C389   1.398       .  A
C389        C390   1.412       .  A
C389        H399   1.081       .  S
C390        C391   1.410       .  A
C391        H400   1.083       .  S
C392        C393   1.413       .  A
C392        H401   1.083       .  S
C393        C394   1.409       .  A
C394        H402   1.083       .  S
C403        C404   1.401       .  A
C403        C408   1.405       .  A
C403        H419   1.083       .  S
C404        C405   1.404       .  A
C404        H420   1.084       .  S
C405        C415   1.407       .  A
C405        C406   1.413       .  A
C406        C412   1.413       .  A
C406        C407   1.414       .  A
C407        C409   1.411       .  A
C407        C408   1.413       .  A
C408        C416   1.408       .  A
C409        C418   1.402       .  A
C409        C410   1.403       .  A
C410        C411   1.399       .  A
C410        H421   1.083       .  S
C411        C412   1.403       .  A
C411        H422   1.084       .  S
C412        C413   1.404       .  A
C413        C414   1.404       .  A
C413        H423   1.085       .  S
C414        C415   1.405       .  A
C415        H424   1.085       .  S
C416        C417   1.405       .  A
C416        H425   1.083       .  S
C417        C418   1.406       .  A
C418        H426   1.085       .  S
C427        C428   1.403       .  A
C427        C432   1.402   1_556  A
C427        C840   1.480       .  S
C428        H433   1.084       .  S
C429        C430   1.407       .  A
C429        C522   1.484       .  S
C430        C431   1.414       .  A
C430        H434   1.082       .  S
C431        C819   1.499       .  S
C432        H435   1.083       .  S
C436        C437   1.410       .  A
C436        C441   1.410       .  A
C436        C792   1.488       .  S
C437        H442   1.083       .  S
C438        C439   1.405       .  A
C438        C768   1.487       .  S
C439        H443   1.084       .  S
C440        C441   1.401       .  A
C440        C498   1.472       .  S
C441        H444   1.083       .  S
C445        C446   1.407       .  A
C445        C450   1.409       .  A
C445        C720   1.484       .  S
C446        H451   1.084       .  S
C447        C448   1.402       .  A
C447        C747   1.479       .  S
C448        H452   1.084       .  S
C449        C450   1.403       .  A
C449        C497   1.477       .  S
C450        H453   1.083       .  S
C454        C455   1.407       .  A
C454        C459   1.406       .  A
C454        C696   1.478       .  S
C455        C456   1.402       .  A
C455        H460   1.084       .  S
C456        C490   1.473       .  S
C457        C458   1.404       .  A
C457        H461   1.084       .  S
C458        C675   1.487       .  S
C459        H462   1.084       .  S
C463        C464   1.408   1_556  A
C463        C468   1.409       .  A
C463        C648   1.497       .  S
C464        H469   1.083       .  S
C465        C466   1.410       .  A
C465        C627   1.488       .  S
C466        H470   1.083       .  S
C467        C468   1.404   1_554  A
C468        H471   1.083       .  S
C472        C477   1.403       .  A
C472        C579   1.483       .  S
C473        C474   1.407       .  A
C473        H478   1.084       .  S
C474        C475   1.406       .  A
C474        C603   1.478       .  S
C475        C476   1.401       .  A
C475        H479   1.084       .  S
C476        C524   1.467       .  S
C477        H480   1.085       .  S
O481       Mg483   2.152       .  S
O481        C516   1.236       .  S
C482        H521   1.081       .  S
C482        O495   1.237       .  S
C482        O519   1.271       .  A
Mg483       O527   2.315       .  S
Mg483       O523   2.270   1_545  S
Mg483       O494   2.300       .  S
O484       Mg509   2.149       .  S
O484        C505   1.235       .  S
O485        C516   1.271   1_455  A
O485       Mg509   2.303       .  S
C486        O488   1.274       .  A
O487        C515   1.269       .  A
O487       Mg489   2.298       .  S
O488       Mg520   2.292       .  S
Mg489       O495   2.156   1_655  S
Mg489       O503   2.280       .  S
C490        O528   1.270       .  A
C490        O496   1.278       .  A
O491        C498   1.276       .  A
H492        C505   1.081       .  S
C493        H518   1.081       .  S
C493        O507   1.236       .  S
C493        O508   1.269       .  A
O494        C517   1.270   1_545  A
C497        O510   1.273       .  A
C497        O502   1.273       .  A
C498        O525   1.271       .  A
Mg499       O506   2.134       .  S
Mg499       O500   2.284       .  S
Mg499       O501   2.298   1_665  S
Mg499       O528   2.243   1_655  S
O501        C505   1.269       .  A
O503        C522   1.274       .  A
O504        C524   1.274       .  A
O506        C517   1.235       .  S
O507       Mg526   2.143   1_665  S
O508       Mg520   2.293       .  S
Mg509       O525   2.268       .  S
O510       Mg526   2.272       .  S
H511        C516   1.081       .  S
O512       Mg520   2.162   1_545  S
O512        C515   1.235       .  S
H513        C515   1.081       .  S
H514        C517   1.081       .  S
O519       Mg526   2.304       .  S
O523        C524   1.273       .  A
C529        C530   1.525       .  S
C529        C535   1.535       .  S
C529        C533   1.561       .  S
C529        C651   1.530       .  S
C530        H537   1.087       .  S
C530        C531   1.355       .  D
C531        C532   1.540       .  S
C531        C672   1.479   1_655  S
C532        C536   1.540   1_655  S
C532        C534   1.543       .  S
C532        H538   1.108   1_655  S
C533        H539   1.083       .  S
C533        C534   1.384       .  D
C534        C816   1.501       .  S
C535        H540   1.088   1_655  S
C535        C536   1.362   1_655  D
C536        C795   1.482       .  S
C541        C542   1.534       .  S
C541        C547   1.535       .  S
C541        C545   1.543   1_545  S
C541        C576   1.533   1_545  S
C542        H549   1.083       .  S
C542        C543   1.362       .  D
C543        C544   1.544       .  S
C543        C843   1.483       .  S
C544        C548   1.539       .  S
C544        C546   1.545       .  S
C544        H550   1.107       .  S
C545        H551   1.085       .  S
C545        C546   1.376   1_565  D
C546        C699   1.497   1_545  S
C547        H552   1.086       .  S
C547        C548   1.362       .  D
C548        C723   1.482       .  S
C553        C554   1.538       .  S
C553        C559   1.538       .  S
C553        C557   1.547       .  S
C553        C771   1.536       .  S
C554        H561   1.083       .  S
C554        C555   1.361       .  D
C555        C556   1.535       .  S
C555        C744   1.474       .  S
C556        C560   1.539       .  S
C556        C558   1.530       .  S
C556        H562   1.111       .  S
C557        H563   1.086       .  S
C557        C558   1.371       .  D
C558        C600   1.474       .  S
C559        H564   1.086       .  S
C559        C560   1.367       .  D
C560        C624   1.480       .  S
C565        C566   1.398       .  A
C565        C570   1.403       .  A
C565        H581   1.083       .  S
C566        C567   1.404       .  A
C566        H582   1.084       .  S
C567        C577   1.403       .  A
C567        C568   1.410       .  A
C568        C574   1.409       .  A
C568        C569   1.412       .  A
C569        C571   1.412       .  A
C569        C570   1.410       .  A
C570        C578   1.401       .  A
C571        C580   1.404       .  A
C571        C572   1.403       .  A
C572        C573   1.400       .  A
C572        H583   1.084       .  S
C573        C574   1.404       .  A
C573        H584   1.083       .  S
C574        C575   1.403       .  A
C575        C576   1.412       .  A
C575        H585   1.084       .  S
C576        C577   1.412       .  A
C577        H586   1.080       .  S
C578        C579   1.407       .  A
C578        H587   1.084       .  S
C579        C580   1.406       .  A
C589        C590   1.400       .  A
C589        C594   1.404       .  A
C589        H605   1.083       .  S
C590        C591   1.403       .  A
C590        H606   1.084       .  S
C591        C601   1.406       .  A
C591        C592   1.414       .  A
C592        C598   1.411       .  A
C592        C593   1.412       .  A
C593        C595   1.413       .  A
C593        C594   1.411       .  A
C594        C602   1.403       .  A
C595        C604   1.403       .  A
C595        C596   1.403       .  A
C596        C597   1.399       .  A
C596        H607   1.084       .  S
C597        C598   1.404       .  A
C597        H608   1.083       .  S
C598        C599   1.400       .  A
C599        C600   1.403       .  A
C599        H609   1.084       .  S
C600        C601   1.403       .  A
C601        H610   1.084       .  S
C602        C603   1.405       .  A
C602        H611   1.084       .  S
C603        C604   1.405       .  A
C604        H612   1.085       .  S
C613        C614   1.402       .  A
C613        C618   1.405       .  A
C613        H629   1.083       .  S
C614        C615   1.404       .  A
C614        H630   1.083       .  S
C615        C625   1.410       .  A
C615        C616   1.415       .  A
C616        C622   1.410       .  A
C616        C617   1.411       .  A
C617        C619   1.412       .  A
C617        C618   1.411       .  A
C618        C626   1.407       .  A
C619        C628   1.399       .  A
C619        C620   1.402       .  A
C620        C621   1.395       .  A
C620        H631   1.084       .  S
C621        C622   1.402       .  A
C621        H632   1.084       .  S
C622        C623   1.394       .  A
C623        C624   1.405       .  A
C623        H633   1.085       .  S
C624        C625   1.404       .  A
C625        H634   1.084       .  S
C626        C627   1.410       .  A
C626        H635   1.084       .  S
C627        C628   1.406       .  A
C628        H636   1.084       .  S
C637        C638   1.395       .  A
C637        C642   1.403       .  A
C637        H653   1.084   1_655  S
C638        C639   1.402       .  A
C638        H654   1.084       .  S
C639        C649   1.398       .  A
C639        C640   1.411       .  A
C640        C646   1.410       .  A
C640        C641   1.414       .  A
C641        C643   1.413       .  A
C641        C642   1.407       .  A
C642        C650   1.395       .  A
C643        C652   1.415       .  A
C643        C644   1.406       .  A
C644        C645   1.405       .  A
C644        H655   1.083       .  S
C645        C646   1.406       .  A
C645        H656   1.083       .  S
C646        C647   1.411       .  A
C647        C648   1.413       .  A
C647        H657   1.083       .  S
C648        C649   1.407       .  A
C649        H658   1.083       .  S
C650        C651   1.411       .  A
C650        H659   1.085   1_655  S
C651        C652   1.412       .  A
C652        H660   1.081       .  S
C661        C662   1.399       .  A
C661        C666   1.403   1_655  A
C661        H677   1.084       .  S
C662        C663   1.404       .  A
C662        H678   1.084       .  S
C663        C673   1.402       .  A
C663        C664   1.411   1_655  A
C664        C670   1.414       .  A
C664        C665   1.413       .  A
C665        C667   1.411       .  A
C665        C666   1.412       .  A
C666        C674   1.403       .  A
C667        C676   1.405       .  A
C667        C668   1.404       .  A
C668        C669   1.401       .  A
C668        H679   1.084       .  S
C669        C670   1.404       .  A
C669        H680   1.083       .  S
C670        C671   1.408       .  A
C671        C672   1.403       .  A
C671        H681   1.084       .  S
C672        C673   1.405   1_455  A
C673        H682   1.085       .  S
C674        C675   1.406       .  A
C674        H683   1.082       .  S
C675        C676   1.408       .  A
C676        H684   1.084       .  S
C685        C686   1.401       .  A
C685        C690   1.405       .  A
C685        H701   1.083       .  S
C686        C687   1.404       .  A
C686        H702   1.083       .  S
C687        C697   1.405       .  A
C687        C688   1.411       .  A
C688        C694   1.413       .  A
C688        C689   1.412       .  A
C689        C691   1.409   1_565  A
C689        C690   1.411       .  A
C690        C698   1.407       .  A
C691        C700   1.400       .  A
C691        C692   1.404       .  A
C692        C693   1.397       .  A
C692        H703   1.084       .  S
C693        C694   1.402   1_545  A
C693        H704   1.084       .  S
C694        C695   1.401       .  A
C695        C696   1.403       .  A
C695        H705   1.085       .  S
C696        C697   1.407       .  A
C697        H706   1.084       .  S
C698        C699   1.411       .  A
C698        H707   1.082       .  S
C699        C700   1.409   1_565  A
C700        H708   1.081       .  S
C709        C710   1.396       .  A
C709        C714   1.403       .  A
C709        H725   1.084       .  S
C710        C711   1.402       .  A
C710        H726   1.084       .  S
C711        C721   1.399       .  A
C711        C712   1.412       .  A
C712        C718   1.410       .  A
C712        C713   1.412       .  A
C713        C715   1.415       .  A
C713        C714   1.409       .  A
C714        C722   1.396       .  A
C715        C724   1.410       .  A
C715        C716   1.404       .  A
C716        C717   1.402       .  A
C716        H727   1.084       .  S
C717        C718   1.405       .  A
C717        H728   1.083       .  S
C718        C719   1.406       .  A
C719        C720   1.409       .  A
C719        H729   1.084       .  S
C720        C721   1.405       .  A
C721        H730   1.084       .  S
C722        C723   1.406       .  A
C722        H731   1.085       .  S
C723        C724   1.404       .  A
C724        H732   1.084       .  S
C733        C734   1.401       .  A
C733        C738   1.404       .  A
C733        H749   1.083       .  S
C734        C735   1.404       .  A
C734        H750   1.084       .  S
C735        C745   1.406       .  A
C735        C736   1.414       .  A
C736        C742   1.411       .  A
C736        C737   1.412       .  A
C737        C739   1.413       .  A
C737        C738   1.412       .  A
C738        C746   1.405       .  A
C739        C748   1.401       .  A
C739        C740   1.403       .  A
C740        C741   1.398       .  A
C740        H751   1.084       .  S
C741        C742   1.403       .  A
C741        H752   1.084       .  S
C742        C743   1.400       .  A
C743        C744   1.404       .  A
C743        H753   1.085       .  S
C744        C745   1.402       .  A
C745        H754   1.084       .  S
C746        C747   1.406       .  A
C746        H755   1.084       .  S
C747        C748   1.404       .  A
C748        H756   1.085       .  S
C757        C758   1.399       .  A
C757        C762   1.404       .  A
C757        H773   1.084       .  S
C758        C759   1.403       .  A
C758        H774   1.083       .  S
C759        C769   1.402       .  A
C759        C760   1.411       .  A
C760        C766   1.412       .  A
C760        C761   1.414       .  A
C761        C763   1.409       .  A
C761        C762   1.410       .  A
C762        C770   1.403       .  A
C763        C772   1.406       .  A
C763        C764   1.405       .  A
C764        C765   1.401       .  A
C764        H775   1.083       .  S
C765        C766   1.404       .  A
C765        H776   1.084       .  S
C766        C767   1.407       .  A
C767        C768   1.408       .  A
C768        C769   1.407       .  A
C769        H778   1.084       .  S
C770        C771   1.412       .  A
C770        H779   1.080       .  S
C771        C772   1.414       .  A
C772        H780   1.083       .  S
C781        C782   1.396       .  A
C781        C786   1.403   1_655  A
C781        H797   1.084       .  S
C782        C783   1.402   1_655  A
C782        H798   1.084       .  S
C783        C793   1.401       .  A
C783        C784   1.412       .  A
C784        C790   1.410       .  A
C784        C785   1.412       .  A
C785        C787   1.415       .  A
C785        C786   1.409       .  A
C786        C794   1.396       .  A
C787        C796   1.409       .  A
C787        C788   1.404       .  A
C788        C789   1.402       .  A
C788        H799   1.083       .  S
C789        C790   1.405       .  A
C789        H800   1.083       .  S
C790        C791   1.405       .  A
C791        C792   1.410       .  A
C791        H801   1.084       .  S
C792        C793   1.406       .  A
C793        H802   1.084       .  S
C794        C795   1.407       .  A
C794        H803   1.083   1_455  S
C795        C796   1.403       .  A
C796        H804   1.084       .  S
C805        C806   1.403       .  A
C805        C810   1.406       .  A
C805        H821   1.084       .  S
C806        C807   1.405       .  A
C806        H822   1.083       .  S
C807        C817   1.413       .  A
C807        C808   1.413       .  A
C808        C814   1.407       .  A
C808        C809   1.415       .  A
C809        C811   1.412       .  A
C809        C810   1.409       .  A
C810        C818   1.407       .  A
C811        C820   1.403       .  A
C811        C812   1.403       .  A
C812        C813   1.397       .  A
C812        H823   1.084       .  S
C813        C814   1.404       .  A
C813        H824   1.084   1_655  S
C814        C815   1.398       .  A
C815        C816   1.412       .  A
C815        H825   1.081       .  S
C816        C817   1.410       .  A
C817        H826   1.083       .  S
C818        C819   1.413       .  A
C818        H827   1.083       .  S
C819        C820   1.409       .  A
C820        H828   1.083       .  S
C829        C830   1.401       .  A
C829        C834   1.405       .  A
C829        H845   1.083       .  S
C830        C831   1.404       .  A
C830        H846   1.084       .  S
C831        C841   1.407       .  A
C831        C832   1.413       .  A
C832        C838   1.413       .  A
C832        C833   1.414       .  A
C833        C835   1.411       .  A
C833        C834   1.413       .  A
C834        C842   1.408       .  A
C835        C844   1.402       .  A
C835        C836   1.403       .  A
C836        C837   1.399       .  A
C836        H847   1.083       .  S
C837        C838   1.403       .  A
C837        H848   1.084       .  S
C838        C839   1.404       .  A
C839        C840   1.404       .  A
C839        H849   1.085       .  S
C840        C841   1.405       .  A
C841        H850   1.085       .  S
C842        C843   1.405       .  A
C842        H851   1.083       .  S
C843        C844   1.406       .  A
C844        H852   1.085       .  S
