geometry optimzed in LAMMPS
_audit_creation_date              2020-11-30 
_audit_creation_method            'lammps2cif' 
_symmetry_space_group_name_H-M    'P1' 
_symmetry_Int_Tables_number       1 
_symmetry_cell_setting            triclinic 
loop_ 
_symmetry_equiv_pos_as_xyz 
  x,y,z 
_cell_length_a                    35.5018068 
_cell_length_b                    34.72475023228927 
_cell_length_c                    32.09726360810606 
_cell_angle_alpha                 89.97527053377318 
_cell_angle_beta                  90.18346190276176 
_cell_angle_gamma                 120.19834710646485 
loop_ 
_atom_site_label 
_atom_site_type_symbol 
_atom_site_fract_x 
_atom_site_fract_y 
_atom_site_fract_z 
_atom_site_charge 
N1          N  0.02118902  0.32617539  0.24925759    -0.35400
N2          N  0.48205574  0.25746939  0.16436826    -0.56000
N3          N  0.43803181  0.18475240  0.25005001    -0.35400
N4          N  0.48175032  0.25731114  0.33466883    -0.56000
C5          C  0.03931885  0.35208287  0.21504191     0.28200
C6          C  0.03913657  0.35190773  0.28368114     0.28200
C7          C  0.42549841  0.15833120  0.21632919     0.28200
C8          C  0.42522186  0.15819140  0.28363279     0.28200
C9          C  0.02478808  0.28794175  0.17356226     0.36800
C10         C  0.47671699  0.21598862  0.17127512     0.36800
C11         C  0.02436637  0.28758651  0.32515050     0.36800
C12         C  0.47650674  0.21568162  0.32893882     0.36800
C13         C  0.06421510  0.39599894  0.22803844    -0.20700
C14         C  0.06408676  0.39589163  0.27100091    -0.20700
C15         C  0.40450921  0.11445967  0.22848700    -0.20700
C16         C  0.40433915  0.11437246  0.27123367    -0.20700
C17         C  0.04337641  0.26599398  0.19276533    -0.21800
C18         C  0.51425534  0.22121842  0.19006059    -0.21800
C19         C  0.04288772  0.26527944  0.30676764    -0.21800
C20         C  0.51396243  0.22056926  0.31050063    -0.21800
C21         C  0.04443887  0.33555556  0.17576314    -0.17100
C22         C  0.04430819  0.33522247  0.32288068    -0.17100
C23         C  0.43598693  0.17461423  0.32421320    -0.17100
C24         C  0.43617635  0.17492108  0.17585376    -0.17100
H25         H  0.08498986  0.42452431  0.20883807     0.15800
H26         H  0.08475669  0.42432188  0.29047276     0.15800
H27         H  0.39594573  0.08621413  0.20933943     0.15800
H28         H  0.39565132  0.08605996  0.29028618     0.15800
H29         H  0.07389357  0.28118603  0.20973587     0.14100
H30         H  0.51851149  0.19520325  0.20389577     0.14100
H31         H  0.07326860  0.28011707  0.28979936     0.14100
H32         H  0.51818285  0.19425591  0.29739776     0.14100
H33         H  0.00295958  0.29157338  0.24917376     0.27300
H34         H  0.45364744  0.21942427  0.25012901     0.27300
N35         N  0.26733979  0.31963682  0.49930688    -0.35400
N36         N  0.22759812  0.24280272  0.41409139    -0.56000
N37         N  0.19408858  0.17081902  0.49886300    -0.35400
N38         N  0.22604573  0.24276290  0.08400228    -0.56000
C39         C  0.27376424  0.34459759  0.46575920     0.28200
C40         C  0.27297817  0.34455727  0.03277503     0.28200
C41         C  0.18845148  0.14536780  0.46470007     0.28200
C42         C  0.18775625  0.14537323  0.03317420     0.28200
C43         C  0.26412693  0.28363444  0.42152859     0.36800
C44         C  0.23797935  0.21094418  0.42518080     0.36800
C45         C  0.26271316  0.28364670  0.07729104     0.36800
C46         C  0.23664227  0.21097827  0.07332800     0.36800
C47         C  0.28176798  0.38655490  0.47767234    -0.20700
C48         C  0.28126253  0.38652364  0.02065262    -0.20700
C49         C  0.17134535  0.10144312  0.47738682    -0.20700
C50         C  0.17084054  0.10142763  0.02050876    -0.20700
C51         C  0.29529437  0.27666228  0.44063703    -0.21800
C52         C  0.27750573  0.23169140  0.44560270    -0.21800
C53         C  0.29421423  0.27677677  0.05901338    -0.21800
C54         C  0.27646456  0.23184784  0.05375471    -0.21800
C55         C  0.26614810  0.32604745  0.42607382    -0.17100
C56         C  0.26480560  0.32606346  0.07245892    -0.17100
C57         C  0.20869830  0.16311002  0.07237426    -0.17100
C58         C  0.20989159  0.16310031  0.42584704    -0.17100
H59         H  0.28569763  0.41364983  0.45809570     0.15800
H60         H  0.28482813  0.41358596  0.04007312     0.15800
H61         H  0.16532157  0.07337060  0.45804726     0.15800
H62         H  0.16433837  0.07332690  0.04002040     0.15800
H63         H  0.32582647  0.30189788  0.45413658     0.14100
H64         H  0.29191475  0.21565259  0.46296218     0.14100
H65         H  0.32494872  0.30207564  0.04608872     0.14100
H66         H  0.29100303  0.21592401  0.03653535     0.14100
H67         H  0.25271247  0.28503050  0.49925907     0.27300
H68         H  0.20781361  0.20534996  0.49884542     0.27300
N69         N  0.47365213  0.29701629  0.49960292    -0.35400
N70         N  0.01960628  0.27651515  0.41601192    -0.56000
N71         N  0.06224811  0.24633150  0.49935656    -0.35400
N72         N  0.02009232  0.27779135  0.08263498    -0.56000
C73         C  0.45509801  0.30351748  0.46521732     0.28200
C74         C  0.45538289  0.30414661  0.03379346     0.28200
C75         C  0.08454697  0.24633190  0.46519037     0.28200
C76         C  0.08467164  0.24686859  0.03371839     0.28200
C77         C  0.47556337  0.25900863  0.42256139     0.36800
C78         C  0.02815488  0.24191072  0.41777138     0.36800
C79         C  0.47587899  0.26008054  0.07695895     0.36800
C80         C  0.02858113  0.24317686  0.08094035     0.36800
C81         C  0.42883991  0.32039692  0.47771765    -0.20700
C82         C  0.42902129  0.32079607  0.02081791    -0.20700
C83         C  0.12280534  0.24812016  0.47796657    -0.20700
C84         C  0.12288696  0.24846016  0.02130617    -0.20700
C85         C  0.45851048  0.21547661  0.43540070    -0.21800
C86         C  0.99059506  0.20435997  0.43130818    -0.21800
C87         C  0.45848492  0.21624026  0.06484038    -0.21800
C88         C  0.99075068  0.20530673  0.06832911    -0.21800
C89         C  0.45204628  0.28316754  0.42570428    -0.17100
C90         C  0.45237428  0.28419583  0.07350576    -0.17100
C91         C  0.07071147  0.24702710  0.07525065    -0.17100
C92         C  0.07042702  0.24589035  0.42351211    -0.17100
H93         H  0.40735346  0.32619887  0.45811389     0.15800
H94         H  0.40760857  0.32681404  0.04015402     0.15800
H95         H  0.14814336  0.24937212  0.45837293     0.15800
H96         H  0.14832167  0.25001778  0.04113350     0.15800
H97         H  0.42747561  0.19533308  0.45037800     0.14100
H98         H  0.98808081  0.17340832  0.44137567     0.14100
H99         H  0.42708529  0.19576355  0.05045531     0.14100
H100        H  0.98801241  0.17415896  0.05861799     0.14100
H101        H  0.49252042  0.28178678  0.49976882     0.27300
H102        H  0.03327894  0.24700945  0.49927298     0.27300
N103        N  0.39184039  0.10644886  0.12752685    -0.02300
C104        C  0.40505167  0.14863978  0.14072905     0.00300
C105        C  0.38218988  0.16320135  0.11975625    -0.22600
C106        C  0.35937378  0.13288823  0.08822731    -0.22800
C107        C  0.36072537  0.09449668  0.09676031     0.00200
H108        H  0.38336145  0.19281799  0.12909826     0.14000
H109        H  0.34108047  0.13721987  0.06355016     0.14000
N110        N  0.10113604  0.38465271  0.11649462    -0.02300
C111        C  0.08979322  0.36464041  0.15537868     0.00300
C112        C  0.12724237  0.38044333  0.17850132    -0.22600
C113        C  0.16099776  0.40886588  0.15350571    -0.22800
C114        C  0.14600681  0.40869556  0.11402696     0.00200
H115        H  0.12990456  0.37241380  0.21054859     0.14000
H116        H  0.19323516  0.42386409  0.16369590     0.14000
O117        O  0.48204192  0.04957529  0.09310241    -0.87200
C118        C  0.06365139  0.06316995  0.18692253     0.88900
Mg119      Mg  0.41439581  0.00287524  0.09946716     1.58100
O120        O  0.06458160  0.01479277  0.09209233    -0.86900
O121        O  0.03682536  0.07740550  0.05011507    -0.74200
C122        C  0.41430871  0.32340682  0.14412437     0.93900
O123        O  0.46119074  0.04026847  0.19264786    -0.74000
O124        O  0.38983861  0.33985063  0.14987001    -0.81500
Mg125      Mg  0.00694687  0.09328902  0.14545930     1.58000
C126        C  0.07596367  0.40245015  0.10004745     0.93800
O127        O  0.05335166  0.15188471  0.10301165    -0.79800
H128        H  0.07512793  0.01986367  0.03151939    -0.05100
C129        C  0.50522469  0.43621497  0.18660663     0.88800
O130        O  0.41860916  0.45394869  0.05549447    -0.74300
O131        O  0.05042621  0.06781057  0.15167659    -0.87100
O132        O  0.09320210  0.44445483  0.09638201    -0.79900
C133        C  0.16691059  0.08174540  0.13676470     0.94000
C134        C  0.09463538  0.17445556  0.10632047     0.93800
Mg135      Mg  0.48931210  0.40169861  0.09736248     1.58000
O136        O  0.45493620  0.34753118  0.14331329    -0.79800
O137        O  0.03034146  0.45726305  0.05045408    -0.74000
O138        O  0.14272462  0.09797882  0.14052646    -0.79900
O139        O  0.45942179  0.11367484  0.13370524    -0.81600
O140        O  0.34554693  0.39375515  0.12222315    -0.79900
C141        C  0.05748898  0.49830348  0.05684096     0.88300
O142        O  0.44311102  0.42247052  0.09756101    -0.87100
O143        O  0.01849125  0.44332946  0.15034699    -0.87200
O144        O  0.46624179  0.42438983  0.19540327    -0.74200
Mg145      Mg  0.09035925  0.08427745  0.09563759     1.58000
O146        O  0.15171610  0.04016845  0.13341256    -0.81600
H147        H  0.47543043  0.06281929  0.03408965    -0.05300
O148        O  0.42980062  0.47979387  0.15500672    -0.86900
H149        H  0.41537937  0.47969371  0.21499532    -0.05100
H150        H  0.42745691  0.40298339  0.03833805    -0.05300
C151        C  0.43453575  0.99881467  0.18867260     0.88200
C152        C  0.99687038  0.06309799  0.05800619     0.88800
C153        C  0.42914783  0.42486949  0.06300807     0.88900
H154        H  0.02772712  0.44220306  0.21159550    -0.05300
O155        O  0.07677491  0.03542968  0.19176881    -0.74300
Mg156      Mg  0.40881854  0.41123326  0.15484053     1.58000
H157        H  0.06327682  0.08249496  0.21305622    -0.05300
C158        C  0.41858999  0.08794085  0.13308651     0.93800
O159        O  0.34491502  0.45633932  0.10961352    -0.81600
C160        C  0.32552261  0.41506340  0.11659341     0.93900
O161        O  0.11731294  0.15614311  0.10325594    -0.81500
Mg162      Mg  0.08352159  0.48946467  0.14274865     1.58200
O163        O  0.40133555  0.04668796  0.13788455    -0.79900
O164        O  0.03536774  0.37748421  0.09815909    -0.81600
N165        N  0.27956843  0.39167511  0.11911133    -0.02300
C166        C  0.25501255  0.40384147  0.14237119     0.00300
C167        C  0.21365880  0.36668288  0.14273497    -0.22600
C168        C  0.21208379  0.33589558  0.11467890    -0.22800
C169        C  0.25347937  0.34964842  0.10418734     0.00200
H170        H  0.18896568  0.35918734  0.16542585     0.14000
H171        H  0.18499165  0.30547408  0.10358760     0.14000
N172        N  0.11503483  0.21955782  0.11960448    -0.02300
C173        C  0.09845625  0.24718548  0.11220441     0.00300
C174        C  0.11508781  0.27962560  0.14204300    -0.22600
C175        C  0.14013511  0.27094906  0.16958435    -0.22800
C176        C  0.14269362  0.23549202  0.15366942     0.00200
H177        H  0.11100589  0.30786261  0.14230544     0.14000
H178        H  0.15656700  0.28992827  0.19719469     0.14000
N179        N  0.21164376  0.11066618  0.13084468    -0.02300
C180        C  0.23931099  0.09525015  0.13996296     0.00300
C181        C  0.26685677  0.10617882  0.10810520    -0.22600
C182        C  0.25697968  0.12771966  0.07767892    -0.22800
C183        C  0.22549074  0.13498384  0.09452139     0.00200
H184        H  0.28803874  0.09381249  0.10745939     0.14000
H185        H  0.27302839  0.13942588  0.04794733     0.14000
N186        N  0.39522387  0.27844251  0.13140434    -0.02300
C187        C  0.40718566  0.26571571  0.09495622     0.00300
C188        C  0.36931410  0.23274775  0.07665800    -0.22600
C189        C  0.33630038  0.22227404  0.10507440    -0.22800
C190        C  0.35153310  0.25036295  0.13758514     0.00200
H191        H  0.36646879  0.21609434  0.04735172     0.14000
H192        H  0.30383896  0.19738283  0.10395166     0.14000
N193        N  0.39265827  0.10588125  0.37241480    -0.02300
C194        C  0.36174687  0.09365745  0.40325009     0.00300
C195        C  0.36021574  0.13183792  0.41216340    -0.22600
C196        C  0.38242295  0.16214314  0.38060477    -0.22800
C197        C  0.40541116  0.14800933  0.35941526     0.00200
H198        H  0.34175440  0.13581880  0.43675967     0.14000
H199        H  0.38269035  0.19121719  0.37105533     0.14000
N200        N  0.10170104  0.38396528  0.38197549    -0.02300
C201        C  0.14657034  0.40777606  0.38436557     0.00300
C202        C  0.16119230  0.40796717  0.34480515    -0.22600
C203        C  0.12712670  0.37958076  0.31985581    -0.22800
C204        C  0.08990506  0.36400422  0.34308361     0.00200
H205        H  0.19336265  0.42309503  0.33448220     0.14000
H206        H  0.12940593  0.37155978  0.28773727     0.14000
O207        O  0.01780010  0.44404297  0.34866761    -0.87200
C208        C  0.43065499  0.42517489  0.43746602     0.88900
Mg209      Mg  0.08522532  0.48962108  0.35551684     1.58100
O210        O  0.43046926  0.47950424  0.34506882    -0.86900
O211        O  0.46505969  0.42315782  0.30287258    -0.74200
C212        C  0.09547080  0.17396040  0.39211415     0.93900
O213        O  0.03330057  0.45765382  0.44925430    -0.74000
O214        O  0.11834306  0.15577751  0.39436023    -0.81500
Mg215      Mg  0.49017360  0.40111231  0.40343874     1.58000
C216        C  0.41958040  0.08765454  0.36652941     0.93800
O217        O  0.45525227  0.34713693  0.35732865    -0.79800
H218        H  0.41474328  0.47859156  0.28525532    -0.05100
C219        C  0.99894317  0.06280359  0.44155440     0.88800
O220        O  0.07787815  0.03537500  0.30679659    -0.74300
O221        O  0.44433290  0.42237596  0.40298745    -0.87100
O222        O  0.40248520  0.04646386  0.36149870    -0.79900
C223        C  0.32656307  0.41517610  0.38296457     0.94000
C224        C  0.41463074  0.32319851  0.35569961     0.93800
Mg225      Mg  0.00750090  0.09253486  0.35387331     1.58000
O226        O  0.05433552  0.15120711  0.39616403    -0.79800
O227        O  0.46105071  0.03944635  0.30693107    -0.74000
O228        O  0.34687658  0.39394822  0.37916801    -0.79900
O229        O  0.03643597  0.37704582  0.40163018    -0.81600
O230        O  0.14342725  0.09705246  0.35729312    -0.79900
C231        C  0.43447647  0.99806023  0.31131035     0.88300
O232        O  0.05043804  0.06620397  0.34729686    -0.87100
O233        O  0.48323426  0.04933875  0.40661251    -0.87200
O234        O  0.03908925  0.07708648  0.44876704    -0.74200
Mg235      Mg  0.40922873  0.41101263  0.34544490     1.58000
O236        O  0.34574429  0.45654741  0.38949804    -0.81600
H237        H  0.02652137  0.44082908  0.28677459    -0.05300
O238        O  0.06679999  0.01454273  0.40681917    -0.86900
H239        H  0.08091170  0.01980811  0.46681573    -0.05100
H240        H  0.06276296  0.08150338  0.28601552    -0.05300
C241        C  0.06116152  0.49837244  0.44207724     0.88200
C242        C  0.50415877  0.43536091  0.31159953     0.88800
C243        C  0.06376727  0.06225392  0.31193979     0.88900
H244        H  0.47813717  0.06250471  0.46598736    -0.05300
O245        O  0.41980428  0.45408972  0.44457997    -0.74300
Mg246      Mg  0.09188613  0.08389619  0.40266331     1.58000
H247        H  0.42930519  0.40365538  0.46236327    -0.05300
C248        C  0.07696519  0.40203195  0.39867174     0.93800
O249        O  0.15318659  0.03975288  0.36504347    -0.81600
C250        C  0.16794354  0.08124283  0.36159485     0.93900
O251        O  0.39025217  0.33982459  0.35024097    -0.81500
Mg252      Mg  0.41538628  0.00284679  0.40034835     1.58200
O253        O  0.09440054  0.44410848  0.40197372    -0.79900
O254        O  0.46039278  0.11351373  0.36580822    -0.81600
N255        N  0.21258980  0.11049933  0.36759758    -0.02300
C256        C  0.24033693  0.09531877  0.35835674     0.00300
C257        C  0.26831111  0.10655112  0.39007066    -0.22600
C258        C  0.25853196  0.12803067  0.42060319    -0.22800
C259        C  0.22655025  0.13481528  0.40395098     0.00200
H260        H  0.28958401  0.09425878  0.39057121     0.14000
H261        H  0.27490772  0.13997590  0.45025872     0.14000
N262        N  0.11530070  0.21905762  0.37895280    -0.02300
C263        C  0.09852768  0.24650528  0.38668844     0.00300
C264        C  0.11517398  0.27926756  0.35722993    -0.22200
C265        C  0.14006068  0.27080411  0.32944662    -0.22800
C266        C  0.14285253  0.23532398  0.34496375     0.00200
H267        H  0.11101126  0.30745455  0.35727123     0.14000
H268        H  0.15623654  0.28992391  0.30192204     0.14000
N269        N  0.28060456  0.39145503  0.37952440    -0.02300
C270        C  0.25582871  0.40356522  0.35634711     0.00300
C271        C  0.21449919  0.36637066  0.35586549    -0.22600
C272        C  0.21317124  0.33553338  0.38369555    -0.22800
C273        C  0.25466402  0.34934221  0.39415176     0.00200
H274        H  0.18963825  0.35885050  0.33320908     0.14000
H275        H  0.18613799  0.30512190  0.39476142     0.14000
N276        N  0.39540826  0.27797324  0.36726676    -0.02300
C277        C  0.40694925  0.26480929  0.40375528     0.00300
C278        C  0.36875764  0.23212758  0.42163890    -0.22600
C279        C  0.33601452  0.22209427  0.39273543    -0.22800
C280        C  0.35174467  0.25021314  0.36042591     0.00200
H281        H  0.36550790  0.21536370  0.45095862     0.14000
H282        H  0.30329420  0.19782083  0.39344391     0.14000
N283        N  0.23004049  0.04867320  0.24917170    -0.35400
N284        N  0.24395538  0.49513256  0.33430948    -0.56000
N285        N  0.27652655  0.45309128  0.24949078    -0.35400
N286        N  0.24387858  0.49568183  0.16401573    -0.56000
C287        C  0.22576596  0.06898067  0.28329698     0.28200
C288        C  0.22557678  0.06911506  0.21516906     0.28200
C289        C  0.27880798  0.43140552  0.28333186     0.28200
C290        C  0.27859742  0.43150869  0.21549556     0.28200
C291        C  0.26125137  0.03984633  0.32825502     0.36800
C292        C  0.27664059  0.48509721  0.33053235     0.36800
C293        C  0.26108402  0.04036795  0.17025661     0.36800
C294        C  0.27640590  0.48551559  0.16864050     0.36800
C295        C  0.21599562  0.10127714  0.27078309    -0.20700
C296        C  0.21586777  0.10134949  0.22785219    -0.20700
C297        C  0.28398506  0.39619537  0.27084342    -0.20700
C298        C  0.28381241  0.39622816  0.22774343    -0.20700
C299        C  0.30420186  0.05780131  0.31657856    -0.21800
C300        C  0.31339046  0.52344061  0.31781982    -0.21800
C301        C  0.30381084  0.05816039  0.18302416    -0.21800
C302        C  0.31296845  0.52375667  0.18211916    -0.21800
C303        C  0.23704072  0.06287832  0.32415846    -0.17100
C304        C  0.23661455  0.06312568  0.17427929    -0.17100
C305        C  0.27146450  0.44163269  0.17472579    -0.17100
C306        C  0.27190419  0.44137101  0.32417815    -0.17100
H307        H  0.21310262  0.12526439  0.28985612     0.15800
H308        H  0.21287072  0.12537699  0.20889165     0.15800
H309        H  0.28797369  0.37341513  0.29060576     0.15800
H310        H  0.28759433  0.37343287  0.20783604     0.15800
H311        H  0.32545390  0.09151401  0.30601404     0.14100
H312        H  0.34248608  0.52427884  0.30727267     0.14100
H313        H  0.32487119  0.09173310  0.19416942     0.14100
H314        H  0.34184946  0.52449413  0.19342927     0.14100
H315        H  0.23844711  0.02389959  0.24910790     0.27300
H316        H  0.26903195  0.47850718  0.24959747     0.27300
N317        N  0.32959949  0.02585082  0.99994065    -0.35400
N318        N  0.25846213  0.48071609  0.41578817    -0.56000
N319        N  0.18580503  0.43293502  0.49928957    -0.35400
N320        N  0.25751157  0.48201408  0.08340992    -0.56000
C321        C  0.35371563  0.04696661  0.46597607     0.28200
C322        C  0.35326035  0.04761400  0.03414946     0.28200
C323        C  0.16177582  0.41343278  0.46464015     0.28200
C324        C  0.16139207  0.41389417  0.03378802     0.28200
C325        C  0.28722658  0.02460735  0.42638477     0.36800
C326        C  0.21646520  0.47298412  0.42085971     0.36800
C327        C  0.28631008  0.02563086  0.07225225     0.36800
C328        C  0.21554612  0.47411928  0.07748982     0.36800
C329        C  0.39587091  0.07731292  0.47885401    -0.20700
C330        C  0.39556525  0.07775204  0.02183742    -0.20700
C331        C  0.12210287  0.37768602  0.47731046    -0.20700
C332        C  0.12185845  0.37798939  0.02089554    -0.20700
C333        C  0.26335216  0.04031485  0.44650785    -0.21800
C334        C  0.21967110  0.50993836  0.44075705    -0.21800
C335        C  0.26257351  0.04089219  0.05094021    -0.21800
C336        C  0.21884524  0.51060555  0.05648970    -0.21800
C337        C  0.33503518  0.04838618  0.42700498    -0.17100
C338        C  0.33409874  0.04940040  0.07253421    -0.17100
C339        C  0.17557704  0.43101538  0.07519069    -0.17100
C340        C  0.17635750  0.43001918  0.42323093    -0.17100
H341        H  0.42246230  0.10090005  0.45960411     0.15800
H342        H  0.42187931  0.10173003  0.04126354     0.15800
H343        H  0.09571587  0.35407391  0.45777669     0.15800
H344        H  0.09524465  0.35475058  0.04027570     0.15800
H345        H  0.27653506  0.07127082  0.46341970     0.14100
H346        H  0.19299251  0.51278532  0.45354915     0.14100
H347        H  0.27585880  0.07167642  0.03376503     0.14100
H348        H  0.19220955  0.51315006  0.04295173     0.14100
H349        H  0.29646427  0.00214422  0.99972941     0.27300
H350        H  0.21839543  0.45801933  0.49940078     0.27300
N351        N  0.17682116  0.20268189  0.24917330    -0.35400
N352        N  0.24124773  0.21904975  0.17007324    -0.56000
N353        N  0.31370212  0.24977477  0.24892329    -0.35400
N354        N  0.24176306  0.21957631  0.32816058    -0.56000
C355        C  0.15167376  0.19583418  0.21490638     0.28200
C356        C  0.15181984  0.19601690  0.28335881     0.28200
C357        C  0.33453866  0.24684438  0.21495463     0.28200
C358        C  0.33482777  0.24722244  0.28297902     0.28200
C359        C  0.21567449  0.23849966  0.17136256     0.36800
C360        C  0.28402934  0.25283518  0.16671614     0.36800
C361        C  0.21605966  0.23889683  0.32689865     0.36800
C362        C  0.28456454  0.25346558  0.33110597     0.36800
C363        C  0.10888446  0.17941489  0.22752191    -0.20700
C364        C  0.10897627  0.17952476  0.27061955    -0.20700
C365        C  0.36914397  0.24158564  0.22746718    -0.20700
C366        C  0.36932746  0.24182381  0.27060911    -0.20700
C367        C  0.24260831  0.28387446  0.17489324    -0.21800
C368        C  0.28515749  0.29295302  0.17203687    -0.21800
C369        C  0.24287692  0.28423748  0.32292554    -0.21800
C370        C  0.28552580  0.29348260  0.32561977    -0.21800
C371        C  0.16872381  0.21637646  0.17568534    -0.17100
C372        C  0.16903301  0.21657597  0.32265397    -0.17100
C373        C  0.32279888  0.24966825  0.32439331    -0.17100
C374        C  0.32228112  0.24904879  0.17349459    -0.17100
H375        H  0.08146641  0.17311864  0.20794789     0.15800
H376        H  0.08163957  0.17330813  0.29008967     0.15800
H377        H  0.39172924  0.23775460  0.20775383     0.15800
H378        H  0.39207939  0.23819963  0.29042057     0.15800
H379        H  0.23246804  0.30745264  0.18249675     0.14100
H380        H  0.31391490  0.32522941  0.17649510     0.14100
H381        H  0.23252579  0.30762836  0.31513182     0.14100
H382        H  0.31421990  0.32577043  0.32104584     0.14100
H383        H  0.21073271  0.21852300  0.24920184     0.27300
H384        H  0.28675117  0.25419429  0.24887316     0.27300
N385        N  0.02131073  0.32622195  0.74925272    -0.35400
N386        N  0.48213439  0.25754018  0.66437172    -0.56000
N387        N  0.43816711  0.18487222  0.75005334    -0.35400
N388        N  0.48180265  0.25739461  0.83466640    -0.56000
C389        C  0.03943891  0.35212698  0.71503893     0.28200
C390        C  0.03924747  0.35195651  0.78367385     0.28200
C391        C  0.42550736  0.15844572  0.71633360     0.28200
C392        C  0.42521575  0.15831146  0.78363746     0.28200
C393        C  0.02488074  0.28797847  0.67354910     0.36800
C394        C  0.47675747  0.21603717  0.67123625     0.36800
C395        C  0.02443392  0.28763257  0.82516630     0.36800
C396        C  0.47651852  0.21574115  0.82898915     0.36800
C397        C  0.06432095  0.39604601  0.72803047    -0.20700
C398        C  0.06418755  0.39594153  0.77099384    -0.20700
C399        C  0.40428383  0.11457722  0.72849518    -0.20700
C400        C  0.40410536  0.11449361  0.77123652    -0.20700
C401        C  0.04344556  0.26598895  0.69271467    -0.21800
C402        C  0.51429300  0.22121994  0.68998873    -0.21800
C403        C  0.04292801  0.26527808  0.80682799    -0.21800
C404        C  0.51397188  0.22057657  0.81059098    -0.21800
C405        C  0.04456615  0.33559497  0.67577032    -0.17100
C406        C  0.04441653  0.33527145  0.82287091    -0.17100
C407        C  0.43597364  0.17470815  0.82422804    -0.17100
C408        C  0.43619146  0.17500389  0.67584827    -0.17100
H409        H  0.08508617  0.42457258  0.70882740     0.15800
H410        H  0.08484559  0.42437504  0.79046696     0.15800
H411        H  0.39549973  0.08629040  0.70934396     0.15800
H412        H  0.39518950  0.08614223  0.79029484     0.15800
H413        H  0.07396126  0.28114775  0.70968653     0.14100
H414        H  0.51852265  0.19517974  0.70380410     0.14100
H415        H  0.07330433  0.28007692  0.78985443     0.14100
H416        H  0.51816464  0.19423512  0.79751493     0.14100
H417        H  0.00310212  0.29162220  0.74917001     0.27300
H418        H  0.45392383  0.21954812  0.75013008     0.27300
N419        N  0.26729642  0.31962848  0.99932277    -0.35400
N420        N  0.22762235  0.24283355  0.91408467    -0.56000
N421        N  0.19408158  0.17081436  0.99886348    -0.35400
N422        N  0.22608770  0.24279703  0.58400203    -0.56000
C423        C  0.27374614  0.34460436  0.96578079     0.28200
C424        C  0.27303728  0.34457843  0.53275447     0.28200
C425        C  0.18845633  0.14537325  0.96469440     0.28200
C426        C  0.18776571  0.14538469  0.53317944     0.28200
C427        C  0.26414940  0.28366173  0.92154354     0.36800
C428        C  0.23798417  0.21096732  0.92520054     0.36800
C429        C  0.26276362  0.28367348  0.57728283     0.36800
C430        C  0.23666191  0.21099898  0.57331341     0.36800
C431        C  0.28174233  0.38655680  0.97770143    -0.20700
C432        C  0.28131667  0.38654017  0.52062317    -0.20700
C433        C  0.17135354  0.10144598  0.97737023    -0.20700
C434        C  0.17084232  0.10143523  0.52052508    -0.20700
C435        C  0.29529362  0.27667847  0.94068766    -0.21800
C436        C  0.27748907  0.23170686  0.94566215    -0.21800
C437        C  0.29424638  0.27678426  0.55899107    -0.21800
C438        C  0.27647339  0.23185420  0.55371975    -0.21800
C439        C  0.26617284  0.32607655  0.92608789    -0.17100
C440        C  0.26487414  0.32609935  0.57244489    -0.17100
C441        C  0.20870766  0.16313028  0.57237679    -0.17100
C442        C  0.20989318  0.16312105  0.92584290    -0.17100
H443        H  0.28569157  0.41366137  0.95812729     0.15800
H444        H  0.28488987  0.41360897  0.54003856     0.15800
H445        H  0.16533078  0.07337753  0.95802525     0.15800
H446        H  0.16433792  0.07333737  0.54004157     0.15800
H447        H  0.32581761  0.30190846  0.95420545     0.14100
H448        H  0.29188622  0.21566230  0.96303070     0.14100
H449        H  0.32498225  0.30207371  0.54606082     0.14100
H450        H  0.29099851  0.21592143  0.53649321     0.14100
H451        H  0.25267088  0.28502228  0.99926778     0.27300
H452        H  0.20779878  0.20534432  0.99885583     0.27300
N453        N  0.47364502  0.29701546  0.99964314    -0.35400
N454        N  0.01965143  0.27657270  0.91602054    -0.56000
N455        N  0.06225056  0.24634563  0.99933980    -0.35400
N456        N  0.02014682  0.27784236  0.58262388    -0.56000
C457        C  0.45511745  0.30354599  0.96525430     0.28200
C458        C  0.45541915  0.30418035  0.53375655     0.28200
C459        C  0.08456629  0.24636239  0.96517943     0.28200
C460        C  0.08468520  0.24686872  0.53372864     0.28200
C461        C  0.47560961  0.25906795  0.92257619     0.36800
C462        C  0.02819458  0.24196228  0.91775090     0.36800
C463        C  0.47593522  0.26013981  0.57694483     0.36800
C464        C  0.02862486  0.24321808  0.58096131     0.36800
C465        C  0.42884690  0.32041150  0.97775553    -0.20700
C466        C  0.42904955  0.32082106  0.52077998    -0.20700
C467        C  0.12281991  0.24814834  0.97796668    -0.20700
C468        C  0.12289180  0.24844894  0.52130579    -0.20700
C469        C  0.45855344  0.21553022  0.93539631    -0.21800
C470        C  0.99063084  0.20440762  0.93127786    -0.21800
C471        C  0.45853173  0.21629195  0.56484993    -0.21800
C472        C  0.99078729  0.20534588  0.56836448    -0.21800
C473        C  0.45209073  0.28322506  0.92572960    -0.17100
C474        C  0.45243318  0.28425798  0.57348092    -0.17100
C475        C  0.07074798  0.24705178  0.57526458    -0.17100
C476        C  0.07046300  0.24593254  0.92349657    -0.17100
H477        H  0.40737015  0.32622361  0.95814745     0.15800
H478        H  0.40765055  0.32685500  0.54012052     0.15800
H479        H  0.14816634  0.24940883  0.95837971     0.15800
H480        H  0.14833392  0.25001265  0.54112631     0.15800
H481        H  0.42752006  0.19538480  0.95037617     0.14100
H482        H  0.98811062  0.17344765  0.94132666     0.14100
H483        H  0.42713082  0.19581398  0.55046686     0.14100
H484        H  0.98803899  0.17418738  0.55867537     0.14100
H485        H  0.49251515  0.28178799  0.99980624     0.27300
H486        H  0.03327952  0.24701985  0.99925097     0.27300
N487        N  0.39181702  0.10647847  0.62758279    -0.02300
C488        C  0.40506477  0.14869593  0.64073024     0.00300
C489        C  0.38222270  0.16325638  0.61972275    -0.22600
C490        C  0.35938558  0.13291563  0.58822110    -0.22800
C491        C  0.36070187  0.09451522  0.59681196     0.00200
H492        H  0.38341606  0.19288903  0.62903145     0.14000
H493        H  0.34108637  0.13723081  0.56353953     0.14000
N494        N  0.10123364  0.38465852  0.61648978    -0.02300
C495        C  0.08991781  0.36467225  0.65538246     0.00300
C496        C  0.12737847  0.38052665  0.67849976    -0.22600
C497        C  0.16111774  0.40895084  0.65348352    -0.22800
C498        C  0.14610015  0.40870936  0.61400013     0.00200
H499        H  0.13005773  0.37253808  0.71055654     0.14000
H500        H  0.19336542  0.42400406  0.66366364     0.14000
O501        O  0.48194191  0.04957898  0.59316148    -0.87200
C502        C  0.06361564  0.06308667  0.68690712     0.88900
Mg503      Mg  0.41430121  0.00284987  0.59951863     1.58100
O504        O  0.06442029  0.01473449  0.59201524    -0.86900
O505        O  0.03669749  0.07744877  0.55014724    -0.74200
C506        C  0.41439174  0.32347292  0.64411925     0.93900
O507        O  0.46110886  0.04017749  0.69271332    -0.74000
O508        O  0.38992238  0.33992023  0.64984389    -0.81500
Mg509      Mg  0.00687676  0.09323539  0.64556314     1.58000
C510        C  0.07608220  0.40251497  0.60012974     0.93800
O511        O  0.05329789  0.15190762  0.60318325    -0.79800
H512        H  0.07474806  0.01983026  0.53140453    -0.05100
C513        C  0.50527519  0.43625270  0.68665793     0.88800
O514        O  0.41869931  0.45396050  0.55546098    -0.74300
O515        O  0.05033338  0.06771985  0.65168985    -0.87100
O516        O  0.09335502  0.44453306  0.59655460    -0.79900
C517        C  0.16680698  0.08165929  0.63664223     0.94000
C518        C  0.09459170  0.17444282  0.60641011     0.93800
Mg519      Mg  0.48944056  0.40177958  0.59740346     1.58000
O520        O  0.45501993  0.34759263  0.64332743    -0.79800
O521        O  0.03054872  0.45733503  0.55051610    -0.74000
O522        O  0.14261556  0.09787903  0.64044911    -0.79900
O523        O  0.45936724  0.11364907  0.63387766    -0.81600
O524        O  0.34565038  0.39380983  0.62214113    -0.79900
C525        C  0.05773757  0.49835881  0.55692591     0.88300
O526        O  0.44324378  0.42255391  0.59756029    -0.87100
O527        O  0.01857032  0.44339153  0.65040898    -0.87200
O528        O  0.46628728  0.42443138  0.69542795    -0.74200
Mg529      Mg  0.09023000  0.08422658  0.59561850     1.58000
O530        O  0.15162342  0.04009143  0.63321235    -0.81600
H531        H  0.47530809  0.06294496  0.53419394    -0.05300
O532        O  0.42988552  0.47985159  0.65498189    -0.86900
H533        H  0.41548772  0.47979481  0.71497599    -0.05100
H534        H  0.42760410  0.40302148  0.53834562    -0.05300
C535        C  0.43444261  0.99873149  0.68870828     0.88200
C536        C  0.99675372  0.06315833  0.55807225     0.88800
C537        C  0.42927455  0.42491436  0.56299885     0.88900
H538        H  0.02775584  0.44221122  0.71165984    -0.05300
O539        O  0.07675874  0.03535603  0.69170208    -0.74300
Mg540      Mg  0.40890037  0.41129340  0.65481575     1.58000
H541        H  0.06328119  0.08241481  0.71305642    -0.05300
C542        C  0.41853284  0.08793518  0.63319792     0.93800
O543        O  0.34501311  0.45639489  0.60957324    -0.81600
C544        C  0.32562241  0.41511926  0.61654553     0.93900
O545        O  0.11722903  0.15609017  0.60330377    -0.81500
Mg546      Mg  0.08360573  0.48953398  0.64287984     1.58200
O547        O  0.40124756  0.04667057  0.63794749    -0.79900
O548        O  0.03548366  0.37757060  0.59823364    -0.81600
N549        N  0.27967001  0.39173539  0.61908675    -0.02300
C550        C  0.25512790  0.40392376  0.64234466     0.00300
C551        C  0.21376857  0.36677386  0.64271439    -0.22600
C552        C  0.21217719  0.33597504  0.61466157    -0.22800
C553        C  0.25356771  0.34970644  0.60417055     0.00200
H554        H  0.18908539  0.35928766  0.66541360     0.14000
H555        H  0.18507803  0.30555696  0.60357194     0.14000
N556        N  0.11506281  0.21957263  0.61962502    -0.02300
C557        C  0.09851101  0.24722180  0.61221038     0.00300
C558        C  0.11519266  0.27969419  0.64201719    -0.22600
C559        C  0.14024507  0.27102111  0.66955383    -0.22800
C560        C  0.14276189  0.23553291  0.65366193     0.00200
H561        H  0.11113826  0.30794649  0.64226348     0.14000
H562        H  0.15670672  0.29002133  0.69714521     0.14000
N563        N  0.21154869  0.11060220  0.63082002    -0.02300
C564        C  0.23922091  0.09521071  0.64000376     0.00300
C565        C  0.26688676  0.10625461  0.60823201    -0.22600
C566        C  0.25704968  0.12781103  0.57778647    -0.22800
C567        C  0.22548648  0.13500380  0.59455133     0.00200
H568        H  0.28810348  0.09392560  0.60762708     0.14000
H569        H  0.27316889  0.13957144  0.54809276     0.14000
N570        N  0.39530675  0.27850776  0.63140401    -0.02300
C571        C  0.40725059  0.26578907  0.59494032     0.00300
C572        C  0.36936695  0.23284247  0.57663703    -0.22600
C573        C  0.33636206  0.22237695  0.60506112    -0.22800
C574        C  0.35161467  0.25043934  0.63758712     0.00200
H575        H  0.36650720  0.21619567  0.54732315     0.14000
H576        H  0.30389032  0.19751346  0.60393954     0.14000
N577        N  0.39263175  0.10591463  0.87236764    -0.02300
C578        C  0.36172992  0.09367335  0.90321768     0.00300
C579        C  0.36022446  0.13185391  0.91219998    -0.22600
C580        C  0.38243583  0.16218892  0.88066574    -0.22800
C581        C  0.40540577  0.14806696  0.85942684     0.00200
H582        H  0.34175297  0.13580835  0.93680234     0.14000
H583        H  0.38269965  0.19126658  0.87115241     0.14000
N584        N  0.10178485  0.38396489  0.88198674    -0.02300
C585        C  0.14665165  0.40777834  0.88439732     0.00300
C586        C  0.16129733  0.40804182  0.84483166    -0.22600
C587        C  0.12724506  0.37966698  0.81985809    -0.22800
C588        C  0.09001166  0.36404271  0.84307988     0.00200
H589        H  0.19347788  0.42322014  0.83452052     0.14000
H590        H  0.12954023  0.37169083  0.78772864     0.14000
O591        O  0.01787075  0.44410010  0.84864855    -0.87200
C592        C  0.43074376  0.42518329  0.93748827     0.88900
Mg593      Mg  0.08530306  0.48967189  0.85543748     1.58100
O594        O  0.43053680  0.47954088  0.84511035    -0.86900
O595        O  0.46511134  0.42319601  0.80287326    -0.74200
C596        C  0.09543020  0.17396277  0.89202705     0.93900
O597        O  0.03346037  0.45769577  0.94922756    -0.74000
O598        O  0.11826723  0.15574301  0.89430858    -0.81500
Mg599      Mg  0.49027775  0.40116731  0.90342111     1.58000
C600        C  0.41953046  0.08766625  0.86641537     0.93800
O601        O  0.45532764  0.34718531  0.85731983    -0.79800
H602        H  0.41483111  0.47867121  0.78529217    -0.05100
C603        C  0.99884264  0.06287573  0.94147026     0.88800
O604        O  0.07784597  0.03531497  0.80682401    -0.74300
O605        O  0.44443270  0.42242476  0.90300287    -0.87100
O606        O  0.40241713  0.04646774  0.86141163    -0.79900
C607        C  0.32663920  0.41521336  0.88300709     0.94000
C608        C  0.41470533  0.32325022  0.85569730     0.93800
Mg609      Mg  0.00743697  0.09250840  0.85375692     1.58000
O610        O  0.05428261  0.15124156  0.89599496    -0.79800
O611        O  0.46097767  0.03938090  0.80685171    -0.74000
O612        O  0.34695161  0.39398298  0.87922112    -0.79900
O613        O  0.03653481  0.37710917  0.90158561    -0.81600
O614        O  0.14332975  0.09697954  0.85733434    -0.79900
C615        C  0.43440013  0.99799978  0.81125822     0.88300
O616        O  0.05036027  0.06615350  0.84725347    -0.87100
O617        O  0.48315192  0.04936247  0.90653279    -0.87200
O618        O  0.03897740  0.07713622  0.94871508    -0.74200
Mg619      Mg  0.40929916  0.41105667  0.84547192     1.58000
O620        O  0.34582164  0.45658023  0.88955800    -0.81600
H621        H  0.02656418  0.44084238  0.78675786    -0.05300
O622        O  0.06664633  0.01450076  0.90684405    -0.86900
H623        H  0.08061996  0.01981690  0.96686844    -0.05100
H624        H  0.06274678  0.08143423  0.78597627    -0.05300
C625        C  0.06136259  0.49839932  0.94204199     0.88200
C626        C  0.50421253  0.43539603  0.81158723     0.88800
C627        C  0.06372454  0.06219188  0.81191947     0.88900
H628        H  0.47803225  0.06263872  0.96586789    -0.05300
O629        O  0.41986647  0.45407207  0.94462840    -0.74300
Mg630      Mg  0.09176931  0.08386267  0.90265185     1.58000
H631        H  0.42940509  0.40365138  0.96236732    -0.05300
C632        C  0.07706664  0.40207576  0.89862387     0.93800
O633        O  0.15309890  0.03969873  0.86519223    -0.81600
C634        C  0.16784849  0.08118076  0.86168391     0.93900
O635        O  0.39032800  0.33987942  0.85025338    -0.81500
Mg636      Mg  0.41531153  0.00284555  0.90027801     1.58200
O637        O  0.09452937  0.44416148  0.90185901    -0.79900
O638        O  0.46034343  0.11351347  0.86563943    -0.81600
N639        N  0.21250124  0.11045155  0.86760797    -0.02300
C640        C  0.24025569  0.09529857  0.85830090     0.00300
C641        C  0.26835290  0.10665251  0.88992558    -0.22600
C642        C  0.25860643  0.12813754  0.92048121    -0.22800
C643        C  0.22654557  0.13484448  0.90391198     0.00200
H644        H  0.28967030  0.09440980  0.89038081     0.14000
H645        H  0.27505373  0.14013893  0.95009757     0.14000
N646        N  0.11532748  0.21908534  0.87893025    -0.02300
C647        C  0.09857700  0.24655167  0.88667793     0.00300
C648        C  0.11525842  0.27933332  0.85723895    -0.22200
C649        C  0.14014262  0.27086660  0.82945576    -0.22800
C650        C  0.14290539  0.23536571  0.84495844     0.00200
H651        H  0.11112038  0.30753360  0.85729175     0.14000
H652        H  0.15633804  0.28999859  0.80194299     0.14000
N653        N  0.28068350  0.39150343  0.87953631    -0.02300
C654        C  0.25592879  0.40363235  0.85634531     0.00300
C655        C  0.21459385  0.36644770  0.85584654    -0.22600
C656        C  0.21324036  0.33560340  0.88368403    -0.22800
C657        C  0.25472370  0.34939044  0.89415489     0.00200
H658        H  0.18974721  0.35894231  0.83317662     0.14000
H659        H  0.18619841  0.30520014  0.89475127     0.14000
N660        N  0.39547949  0.27802439  0.86726202    -0.02300
C661        C  0.40699986  0.26487578  0.90377182     0.00300
C662        C  0.36879331  0.23223562  0.92167314    -0.22600
C663        C  0.33605725  0.22221480  0.89276642    -0.22800
C664        C  0.35181143  0.25028422  0.86042729     0.00200
H665        H  0.36552646  0.21549109  0.95100847     0.14000
H666        H  0.30332198  0.19799053  0.89348504     0.14000
N667        N  0.22981392  0.04850407  0.74916714    -0.35400
N668        N  0.24414193  0.49525073  0.83439296    -0.56000
N669        N  0.27660010  0.45313382  0.74948072    -0.35400
N670        N  0.24407668  0.49581782  0.66392778    -0.56000
C671        C  0.22550858  0.06879427  0.78329204     0.28200
C672        C  0.22531226  0.06891927  0.71516112     0.28200
C673        C  0.27889250  0.43145451  0.78332292     0.28200
C674        C  0.27868505  0.43156270  0.71548169     0.28200
C675        C  0.26107195  0.03973850  0.82824674     0.36800
C676        C  0.27680374  0.48519049  0.83053061     0.36800
C677        C  0.26089269  0.04024275  0.67025863     0.36800
C678        C  0.27657791  0.48562242  0.66862819     0.36800
C679        C  0.21566066  0.10103367  0.77077330    -0.20700
C680        C  0.21552739  0.10109947  0.72784333    -0.20700
C681        C  0.28406141  0.39624006  0.77083056    -0.20700
C682        C  0.28389161  0.39627667  0.72772908    -0.20700
C683        C  0.30405654  0.05772927  0.81668334    -0.21800
C684        C  0.31352841  0.52351071  0.81771919    -0.21800
C685        C  0.30365770  0.05807814  0.68291190    -0.21800
C686        C  0.31311278  0.52383525  0.68221474    -0.21800
C687        C  0.23686696  0.06277371  0.82414804    -0.17100
C688        C  0.23642841  0.06300303  0.67427790    -0.17100
C689        C  0.27159373  0.44171588  0.67470475    -0.17100
C690        C  0.27202620  0.44144319  0.82417748    -0.17100
H691        H  0.21273134  0.12500253  0.78984029     0.15800
H692        H  0.21248848  0.12510242  0.70888440     0.15800
H693        H  0.28805523  0.37346212  0.79059139     0.15800
H694        H  0.28768267  0.37348826  0.70782032     0.15800
H695        H  0.32533041  0.09147030  0.80620491     0.14100
H696        H  0.34259255  0.52433200  0.80709410     0.14100
H697        H  0.32474367  0.09168413  0.69396189     0.14100
H698        H  0.34195733  0.52454983  0.69360498     0.14100
H699        H  0.23830517  0.02379333  0.74910572     0.27300
H700        H  0.26909421  0.47854146  0.74958935     0.27300
N701        N  0.32960015  0.02586189  0.50001891    -0.35400
N702        N  0.25849752  0.48073358  0.91580167    -0.56000
N703        N  0.18580914  0.43291459  0.99934833    -0.35400
N704        N  0.25754957  0.48203368  0.58338252    -0.56000
C705        C  0.35370336  0.04694565  0.96589301     0.28200
C706        C  0.35324515  0.04762158  0.53423252     0.28200
C707        C  0.16180183  0.41341751  0.96468401     0.28200
C708        C  0.16141244  0.41391485  0.53374486     0.28200
C709        C  0.28719714  0.02461024  0.92630796     0.36800
C710        C  0.21650340  0.47298516  0.92093220     0.36800
C711        C  0.28627279  0.02563217  0.57233234     0.36800
C712        C  0.21559072  0.47413631  0.57742425     0.36800
C713        C  0.39586729  0.07728546  0.97876128    -0.20700
C714        C  0.39555363  0.07776906  0.52192993    -0.20700
C715        C  0.12212012  0.37767004  0.97733377    -0.20700
C716        C  0.12187004  0.37800959  0.52087250    -0.20700
C717        C  0.26331748  0.04036507  0.94634003    -0.21800
C718        C  0.21970906  0.50990244  0.94090769    -0.21800
C719        C  0.26252623  0.04092342  0.55108703    -0.21800
C720        C  0.21889378  0.51059623  0.55636751    -0.21800
C721        C  0.33501006  0.04838563  0.92693676    -0.17100
C722        C  0.33406797  0.04940841  0.57260747    -0.17100
C723        C  0.17562979  0.43103231  0.57514475    -0.17100
C724        C  0.17640774  0.43001338  0.92327986    -0.17100
H725        H  0.42245540  0.10086819  0.95950498     0.15800
H726        H  0.42186013  0.10174852  0.54136236     0.15800
H727        H  0.09574404  0.35406406  0.95778618     0.15800
H728        H  0.09526998  0.35477190  0.54026644     0.15800
H729        H  0.27649423  0.07133667  0.96322264     0.14100
H730        H  0.19303201  0.51272479  0.95374139     0.14100
H731        H  0.27580418  0.07172385  0.53394138     0.14100
H732        H  0.19226089  0.51312703  0.54280266     0.14100
H733        H  0.29646735  0.00214713  0.49980654     0.27300
H734        H  0.21839959  0.45799887  0.99948699     0.27300
N735        N  0.17689649  0.20273808  0.74917016    -0.35400
N736        N  0.24133266  0.21911640  0.67007745    -0.56000
N737        N  0.31378589  0.24985895  0.74892326    -0.35400
N738        N  0.24183162  0.21963632  0.82815655    -0.56000
C739        C  0.15174935  0.19587773  0.71489999     0.28200
C740        C  0.15188901  0.19606227  0.78335382     0.28200
C741        C  0.33462366  0.24692683  0.71495677     0.28200
C742        C  0.33490514  0.24729935  0.78298007     0.28200
C743        C  0.21575137  0.23855746  0.67136133     0.36800
C744        C  0.28411119  0.25290761  0.66671533     0.36800
C745        C  0.21612221  0.23895057  0.82689757     0.36800
C746        C  0.28463123  0.25353000  0.83110480     0.36800
C747        C  0.10895644  0.17944095  0.72751191    -0.20700
C748        C  0.10904439  0.17955293  0.77061028    -0.20700
C749        C  0.36922379  0.24166029  0.72747145    -0.20700
C750        C  0.36940221  0.24189448  0.77061326    -0.20700
C751        C  0.24267946  0.28393513  0.67488085    -0.21800
C752        C  0.28523152  0.29302251  0.67202347    -0.21800
C753        C  0.24293602  0.28429294  0.82293024    -0.21800
C754        C  0.28558682  0.29354458  0.82562775    -0.21800
C755        C  0.16879796  0.21642322  0.67567921    -0.17100
C756        C  0.16909385  0.21662253  0.82265097    -0.17100
C757        C  0.32287136  0.24974216  0.82439234    -0.17100
C758        C  0.32236867  0.24913286  0.67349701    -0.17100
H759        H  0.08153648  0.17313192  0.70793493     0.15800
H760        H  0.08170230  0.17332501  0.79007747     0.15800
H761        H  0.39180734  0.23782450  0.70775976     0.15800
H762        H  0.39214784  0.23826156  0.79042632     0.15800
H763        H  0.23253588  0.30751210  0.68247635     0.14100
H764        H  0.31398630  0.32530368  0.67647054     0.14100
H765        H  0.23258355  0.30768210  0.81513534     0.14100
H766        H  0.31427932  0.32583529  0.82106042     0.14100
H767        H  0.21080899  0.21859342  0.74920139     0.27300
H768        H  0.28683837  0.25428438  0.74887119     0.27300
N769        N  0.02131048  0.82622156  0.24925719    -0.35400
N770        N  0.48213339  0.75754332  0.16436687    -0.56000
N771        N  0.43816447  0.68487423  0.25004559    -0.35400
N772        N  0.48180103  0.75739476  0.33466086    -0.56000
C773        C  0.03943787  0.85212549  0.21504262     0.28200
C774        C  0.03924825  0.85195717  0.28367758     0.28200
C775        C  0.42550543  0.65844835  0.21632536     0.28200
C776        C  0.42521213  0.65831275  0.28362939     0.28200
C777        C  0.02488005  0.78797553  0.17355498     0.36800
C778        C  0.47675621  0.71603969  0.17122822     0.36800
C779        C  0.02443516  0.78763458  0.32517169     0.36800
C780        C  0.47651546  0.71574088  0.32898218     0.36800
C781        C  0.06431995  0.89604498  0.22803292    -0.20700
C782        C  0.06418844  0.89594171  0.27099631    -0.20700
C783        C  0.40428187  0.61457976  0.22848615    -0.20700
C784        C  0.40410205  0.61449518  0.27122748    -0.20700
C785        C  0.04344521  0.76598653  0.19272087    -0.21800
C786        C  0.51429183  0.72122084  0.18997887    -0.21800
C787        C  0.04292953  0.76528047  0.30683320    -0.21800
C788        C  0.51396861  0.72057575  0.31058401    -0.21800
C789        C  0.04456562  0.83559232  0.17577488    -0.17100
C790        C  0.04441701  0.83527315  0.32287546    -0.17100
C791        C  0.43596981  0.67470858  0.32422048    -0.17100
C792        C  0.43619015  0.67500675  0.17584016    -0.17100
H793        H  0.08508471  0.92457094  0.20882898     0.15800
H794        H  0.08484711  0.92437579  0.29046854     0.15800
H795        H  0.39549853  0.58629358  0.20933423     0.15800
H796        H  0.39518520  0.58614313  0.29028511     0.15800
H797        H  0.07396115  0.78114580  0.20969233     0.14100
H798        H  0.51852130  0.69517956  0.20379195     0.14100
H799        H  0.07330575  0.78007956  0.28985944     0.14100
H800        H  0.51816047  0.69423421  0.29750674     0.14100
H801        H  0.00310167  0.79162181  0.24917540     0.27300
H802        H  0.45392149  0.71955009  0.25012281     0.27300
N803        N  0.26728951  0.81962600  0.49932086    -0.35400
N804        N  0.22762935  0.74283557  0.41408275    -0.56000
N805        N  0.19408065  0.67081132  0.49886004    -0.35400
N806        N  0.22608111  0.74279412  0.08400083    -0.56000
C807        C  0.27374489  0.84460383  0.46577923     0.28200
C808        C  0.27303086  0.84457664  0.03275258     0.28200
C809        C  0.18846119  0.64537234  0.46469079     0.28200
C810        C  0.18776299  0.64538247  0.03317571     0.28200
C811        C  0.26415560  0.78366383  0.42154298     0.36800
C812        C  0.23799035  0.71096959  0.42520153     0.36800
C813        C  0.26275643  0.78367105  0.07728077     0.36800
C814        C  0.23665595  0.71099654  0.07331173     0.36800
C815        C  0.28174035  0.88655603  0.47769981    -0.20700
C816        C  0.28131192  0.88653904  0.02062145    -0.20700
C817        C  0.17136058  0.60144503  0.47736537    -0.20700
C818        C  0.17084266  0.60143368  0.02052029    -0.20700
C819        C  0.29529817  0.77668087  0.44069125    -0.21800
C820        C  0.27749359  0.73170922  0.44566619    -0.21800
C821        C  0.29423951  0.77678247  0.05898885    -0.21800
C822        C  0.27646701  0.73185259  0.05371735    -0.21800
C823        C  0.26617786  0.82607815  0.42608585    -0.17100
C824        C  0.26486633  0.82609676  0.07244269    -0.17100
C825        C  0.20870250  0.66312752  0.07237420    -0.17100
C826        C  0.20990003  0.66312315  0.42584079    -0.17100
H827        H  0.28569381  0.91366206  0.45812539     0.15800
H828        H  0.28488397  0.91360743  0.04003675     0.15800
H829        H  0.16534203  0.57337812  0.45802018     0.15800
H830        H  0.16433793  0.57333549  0.04003646     0.15800
H831        H  0.32582111  0.80191111  0.45421052     0.14100
H832        H  0.29189087  0.71566464  0.46303442     0.14100
H833        H  0.32497513  0.80207218  0.04605831     0.14100
H834        H  0.29099215  0.71592028  0.03649017     0.14100
H835        H  0.25266355  0.78501973  0.49926485     0.27300
H836        H  0.20779474  0.70534090  0.49885313     0.27300
N837        N  0.47364577  0.79701649  0.49963804    -0.35400
N838        N  0.01964951  0.77656964  0.41602783    -0.56000
N839        N  0.06224923  0.74634383  0.49934725    -0.35400
N840        N  0.02014718  0.77784283  0.08263092    -0.56000
C841        C  0.45511938  0.80354902  0.46524936     0.28200
C842        C  0.45541900  0.80417934  0.03375161     0.28200
C843        C  0.08456536  0.74636086  0.46518710     0.28200
C844        C  0.08468409  0.74686739  0.03373524     0.28200
C845        C  0.47561139  0.75907198  0.42257002     0.36800
C846        C  0.02819366  0.74195996  0.41775804     0.36800
C847        C  0.47593379  0.76013678  0.07693872     0.36800
C848        C  0.02862414  0.74321780  0.08096786     0.36800
C849        C  0.42884859  0.82041393  0.47775126    -0.20700
C850        C  0.42905024  0.82082127  0.02077556    -0.20700
C851        C  0.12281885  0.74814682  0.47797473    -0.20700
C852        C  0.12289094  0.74844804  0.02131255    -0.20700
C853        C  0.45855477  0.71553464  0.43539126    -0.21800
C854        C  0.99062986  0.70440432  0.43128341    -0.21800
C855        C  0.45853076  0.71628910  0.06484328    -0.21800
C856        C  0.99078637  0.70534651  0.06836995    -0.21800
C857        C  0.45209352  0.78323004  0.42572371    -0.17100
C858        C  0.45243145  0.78425466  0.07347503    -0.17100
C859        C  0.07074678  0.74705049  0.07527118    -0.17100
C860        C  0.07046248  0.74593115  0.42350408    -0.17100
H861        H  0.40737199  0.82622635  0.45814332     0.15800
H862        H  0.40765097  0.82685487  0.04011613     0.15800
H863        H  0.14816555  0.74940760  0.45838798     0.15800
H864        H  0.14833304  0.75001188  0.04113318     0.15800
H865        H  0.42752233  0.69539097  0.45037326     0.14100
H866        H  0.98811014  0.67344445  0.44133169     0.14100
H867        H  0.42712962  0.69581069  0.05046073     0.14100
H868        H  0.98803746  0.67418790  0.05868022     0.14100
H869        H  0.49251569  0.78178881  0.49980067     0.27300
H870        H  0.03327822  0.74701804  0.49925795     0.27300
N871        N  0.39181924  0.60648169  0.12757336    -0.02300
C872        C  0.40506467  0.64869832  0.14072157     0.00300
C873        C  0.38221841  0.66325560  0.11971676    -0.22600
C874        C  0.35938171  0.63291474  0.08821514    -0.22800
C875        C  0.36070196  0.59451628  0.09680428     0.00200
H876        H  0.38340662  0.69288485  0.12902869     0.14000
H877        H  0.34108007  0.63722840  0.06353508     0.14000
N878        N  0.10123447  0.88465656  0.11649523    -0.02300
C879        C  0.08991786  0.86466952  0.15538758     0.00300
C880        C  0.12737808  0.88052502  0.17850593    -0.22600
C881        C  0.16111786  0.90895049  0.15349073    -0.22800
C882        C  0.14610102  0.90870758  0.11400645     0.00200
H883        H  0.13005660  0.87253691  0.21056305     0.14000
H884        H  0.19336535  0.92400551  0.16367268     0.14000
O885        O  0.48194437  0.54957988  0.09315472    -0.87200
C886        C  0.06361392  0.56307787  0.18691198     0.88900
Mg887      Mg  0.41430386  0.50285171  0.09951710     1.58100
O888        O  0.06441441  0.51473171  0.09201511    -0.86900
O889        O  0.03669224  0.57744990  0.05015444    -0.74200
C890        C  0.41438867  0.82346832  0.14411144     0.93900
O891        O  0.46111540  0.54019006  0.19270728    -0.74000
O892        O  0.38991864  0.83991527  0.14983336    -0.81500
Mg893      Mg  0.00687184  0.59322707  0.14557482     1.58000
C894        C  0.07608491  0.90251620  0.10013745     0.93800
O895        O  0.05329239  0.65190519  0.10319969    -0.79800
H896        H  0.07473504  0.51983244  0.03140316    -0.05100
C897        C  0.50526854  0.93624580  0.18665678     0.88800
O898        O  0.41870091  0.95396386  0.05545862    -0.74300
O899        O  0.05032961  0.56771241  0.15169630    -0.87100
O900        O  0.09336032  0.94453485  0.09656404    -0.79900
C901        C  0.16680351  0.58165516  0.13663910     0.94000
C902        C  0.09458680  0.67443946  0.10642046     0.93800
Mg903      Mg  0.48943954  0.90177921  0.09740003     1.58000
O904        O  0.45501688  0.84758831  0.14332031    -0.79800
O905        O  0.03055491  0.95733537  0.05051812    -0.74000
O906        O  0.14261149  0.59787357  0.14045072    -0.79900
O907        O  0.45937120  0.61365528  0.13386318    -0.81600
O908        O  0.34564695  0.89380649  0.12213088    -0.79900
C909        C  0.05774602  0.99835876  0.05692664     0.88300
O910        O  0.44324252  0.92255316  0.09755633    -0.87100
O911        O  0.01857403  0.94339767  0.15041158    -0.87200
O912        O  0.46627960  0.92442281  0.19542423    -0.74200
Mg913      Mg  0.09022449  0.58422339  0.09562301     1.58000
O914        O  0.15162060  0.54008762  0.13320595    -0.81600
H915        H  0.47530829  0.56293835  0.03418530    -0.05300
O916        O  0.42987964  0.97984462  0.15498123    -0.86900
H917        H  0.41547880  0.97978048  0.21497543    -0.05100
H918        H  0.42760758  0.90302679  0.03833971    -0.05300
C919        C  0.43445014  0.49874322  0.18870688     0.88200
C920        C  0.99674886  0.56315935  0.05808087     0.88800
C921        C  0.42927597  0.92491717  0.06299459     0.88900
H922        H  0.02776096  0.94221845  0.21166228    -0.05300
O923        O  0.07675808  0.53534764  0.19170319    -0.74300
Mg924      Mg  0.40889495  0.91128724  0.15480942     1.58000
H925        H  0.06328060  0.58240462  0.21306307    -0.05300
C926        C  0.41853680  0.58794040  0.13318791     0.93800
O927        O  0.34501089  0.95639348  0.10957104    -0.81600
C928        C  0.32561951  0.91511735  0.11654055     0.93900
O929        O  0.11722300  0.65608577  0.10331183    -0.81500
Mg930      Mg  0.08360898  0.98953929  0.14288348     1.58200
O931        O  0.40125302  0.54667660  0.13794275    -0.79900
O932        O  0.03548618  0.87757361  0.09824080    -0.81600
N933        N  0.27966718  0.89173467  0.11908470    -0.02300
C934        C  0.25512713  0.90392398  0.14234517     0.00300
C935        C  0.21376766  0.86677435  0.14271724    -0.22600
C936        C  0.21217367  0.83597515  0.11466336    -0.22800
C937        C  0.25356308  0.84970560  0.10416936     0.00200
H938        H  0.18908649  0.85928841  0.16541869     0.14000
H939        H  0.18507379  0.80555708  0.10357494     0.14000
N940        N  0.11506094  0.71957063  0.11963129    -0.02300
C941        C  0.09850955  0.74722014  0.11221695     0.00300
C942        C  0.11519253  0.77969309  0.14202322    -0.22600
C943        C  0.14024598  0.77102048  0.16955888    -0.22800
C944        C  0.14276148  0.73553162  0.15366690     0.00200
H945        H  0.11113903  0.80794581  0.14226929     0.14000
H946        H  0.15670914  0.79002137  0.19714949     0.14000
N947        N  0.21154506  0.61059956  0.13081701    -0.02300
C948        C  0.23921797  0.59520871  0.13999996     0.00300
C949        C  0.26688266  0.60625196  0.10822729    -0.22600
C950        C  0.25704463  0.62780815  0.07778235    -0.22800
C951        C  0.22548215  0.63500142  0.09454840     0.00200
H952        H  0.28809950  0.59392301  0.10762168     0.14000
H953        H  0.27316287  0.63956824  0.04808816     0.14000
N954        N  0.39530464  0.77850283  0.13139800    -0.02300
C955        C  0.40724847  0.76578518  0.09493372     0.00300
C956        C  0.36936472  0.73284056  0.07662892    -0.22600
C957        C  0.33635946  0.72237503  0.10505264    -0.22800
C958        C  0.35161236  0.75043486  0.13758064     0.00200
H959        H  0.36650498  0.71619505  0.04731425     0.14000
H960        H  0.30388773  0.69751206  0.10393011     0.14000
N961        N  0.39262817  0.60591249  0.37235844    -0.02300
C962        C  0.36173097  0.59367298  0.40321290     0.00300
C963        C  0.36023003  0.63185497  0.41220054    -0.22600
C964        C  0.38243902  0.66219025  0.38066582    -0.22800
C965        C  0.40540317  0.64806594  0.35942002     0.00200
H966        H  0.34176075  0.63580936  0.43680521     0.14000
H967        H  0.38270573  0.69127047  0.37115748     0.14000
N968        N  0.10178413  0.88396617  0.38199214    -0.02300
C969        C  0.14665093  0.90777932  0.38440352     0.00300
C970        C  0.16129738  0.90804182  0.34483867    -0.22600
C971        C  0.12724553  0.87966789  0.31986421    -0.22800
C972        C  0.09001165  0.86404460  0.34308500     0.00200
H973        H  0.19347827  0.92321936  0.33452921     0.14000
H974        H  0.12954138  0.87169146  0.28773502     0.14000
O975        O  0.01786814  0.94409429  0.34865071    -0.87200
C976        C  0.43074233  0.92517931  0.43748514     0.88900
Mg977      Mg  0.08530080  0.98966732  0.35543969     1.58100
O978        O  0.43054246  0.97954669  0.34511111    -0.86900
O979        O  0.46511988  0.92320526  0.30287024    -0.74200
C980        C  0.09543396  0.67396399  0.39203887     0.93900
O981        O  0.03345650  0.95769736  0.44922918    -0.74000
O982        O  0.11827233  0.65574567  0.39431908    -0.81500
Mg983      Mg  0.49027887  0.90116747  0.40341844     1.58000
C984        C  0.41952615  0.58766340  0.36640387     0.93800
O985        O  0.45533189  0.84718994  0.35731240    -0.79800
H986        H  0.41484095  0.97868425  0.28529259    -0.05100
C987        C  0.99884549  0.56287086  0.44148003     0.88800
O988        O  0.07784791  0.53532335  0.30682648    -0.74300
O989        O  0.44443354  0.92242429  0.40299981    -0.87100
O990        O  0.40241228  0.54646414  0.36140487    -0.79900
C991        C  0.32664170  0.91521398  0.38300283     0.94000
C992        C  0.41470966  0.82325481  0.35568811     0.93800
Mg993      Mg  0.00744134  0.59251436  0.35377000     1.58000
O994        O  0.05428717  0.65124157  0.39601303    -0.79800
O995        O  0.46096960  0.53937043  0.30684457    -0.74000
O996        O  0.34695431  0.89398451  0.37921075    -0.79900
O997        O  0.03653303  0.87710710  0.40159302    -0.81600
O998        O  0.14333400  0.59698434  0.35733979    -0.79900
C999        C  0.43439216  0.49798993  0.31125564     0.88300
O1000       O  0.05036392  0.56615920  0.34726142    -0.87100
O1001       O  0.48314916  0.54936328  0.40652509    -0.87200
O1002       O  0.03898062  0.57713183  0.44872384    -0.74200
Mg1003     Mg  0.40930477  0.91106218  0.34546612     1.58000
O1004       O  0.34582382  0.95658019  0.38955792    -0.81600
H1005       H  0.02655969  0.94083505  0.28675990    -0.05300
O1006       O  0.06665182  0.51450177  0.40684590    -0.86900
H1007       H  0.08063004  0.51981052  0.46686939    -0.05100
H1008       H  0.06274904  0.58144485  0.28598491    -0.05300
C1009       C  0.06135681  0.99840099  0.44204141     0.88200
C1010       C  0.50422007  0.93540408  0.31158727     0.88800
C1011       C  0.06372728  0.56220035  0.31192599     0.88900
H1012       H  0.47803234  0.56264620  0.46585880    -0.05300
O1013       O  0.41986549  0.95406789  0.44462764    -0.74300
Mg1014     Mg  0.09177386  0.58386398  0.40265880     1.58000
H1015       H  0.42940182  0.90364491  0.46236243    -0.05300
C1016       C  0.07706470  0.90207500  0.39863084     0.93800
O1017       O  0.15310167  0.53970135  0.36518790    -0.81600
C1018       C  0.16785195  0.58118377  0.36168336     0.93900
O1019       O  0.39033279  0.83988420  0.35024178    -0.81500
Mg1020     Mg  0.41530922  0.50284545  0.40027482     1.58200
O1021       O  0.09452558  0.94416039  0.40186669    -0.79900
O1022       O  0.46033904  0.61351028  0.36562392    -0.81600
N1023       N  0.21250518  0.61045293  0.36760526    -0.02300
C1024       C  0.24025937  0.59530048  0.35829527     0.00300
C1025       C  0.26836227  0.60665972  0.38991570    -0.22600
C1026       C  0.25861788  0.62814526  0.42047250    -0.22800
C1027       C  0.22655318  0.63484857  0.40390740     0.00200
H1028       H  0.28968076  0.59441825  0.39036889     0.14000
H1029       H  0.27506840  0.64014884  0.45008712     0.14000
N1030       N  0.11532778  0.71908493  0.37893721    -0.02300
C1031       C  0.09857708  0.74655106  0.38668549     0.00300
C1032       C  0.11525726  0.77933236  0.35724607    -0.22200
C1033       C  0.14014026  0.77086509  0.32946171    -0.22800
C1034       C  0.14290423  0.73536462  0.34496398     0.00200
H1035       H  0.11111862  0.80753249  0.35729883     0.14000
H1036       H  0.15633428  0.78999662  0.30194831     0.14000
N1037       N  0.28068590  0.89150350  0.37953399    -0.02300
C1038       C  0.25592972  0.90363204  0.35634514     0.00300
C1039       C  0.21459488  0.86644711  0.35584758    -0.22600
C1040       C  0.21324330  0.83560292  0.38368394    -0.22800
C1041       C  0.25472739  0.84939029  0.39415242     0.00200
H1042       H  0.18974661  0.85894171  0.33317947     0.14000
H1043       H  0.18620186  0.80520003  0.39475264     0.14000
N1044       N  0.39548299  0.77802933  0.36725471    -0.02300
C1045       C  0.40700283  0.76488182  0.40376563     0.00300
C1046       C  0.36879583  0.73224345  0.42166792    -0.22600
C1047       C  0.33605996  0.72222288  0.39276129    -0.22800
C1048       C  0.35181454  0.75028998  0.36042100     0.00200
H1049       H  0.36552844  0.71549990  0.45100397     0.14000
H1050       H  0.30332384  0.69800183  0.39348095     0.14000
N1051       N  0.22981260  0.54850208  0.24916307    -0.35400
N1052       N  0.24414078  0.99525003  0.33439339    -0.56000
N1053       N  0.27660143  0.95313455  0.24948130    -0.35400
N1054       N  0.24407887  0.99581978  0.16392840    -0.56000
C1055       C  0.22550646  0.56879161  0.28328810     0.28200
C1056       C  0.22530935  0.56891635  0.21515717     0.28200
C1057       C  0.27889339  0.93145508  0.28332337     0.28200
C1058       C  0.27868631  0.93156332  0.21548212     0.28200
C1059       C  0.26107225  0.53973790  0.32824207     0.36800
C1060       C  0.27680274  0.98518975  0.33053244     0.36800
C1061       C  0.26089133  0.54024183  0.17025420     0.36800
C1062       C  0.27657958  0.98562368  0.16863002     0.36800
C1063       C  0.21565590  0.60102914  0.27076952    -0.20700
C1064       C  0.21552212  0.60109477  0.22783958    -0.20700
C1065       C  0.28406234  0.89624066  0.27083087    -0.20700
C1066       C  0.28389250  0.89627705  0.22772937    -0.20700
C1067       C  0.30405618  0.55772819  0.31667684    -0.21800
C1068       C  0.31352866  0.02351071  0.31772475    -0.21800
C1069       C  0.30365710  0.55807817  0.18290549    -0.21800
C1070       C  0.31311375  0.02383561  0.18221930    -0.21800
C1071       C  0.23686706  0.56277285  0.32414382    -0.17100
C1072       C  0.23642658  0.56300150  0.17427397    -0.17100
C1073       C  0.27159511  0.94171674  0.17470520    -0.17100
C1074       C  0.27202557  0.94144281  0.32417778    -0.17100
H1075       H  0.21272522  0.62499716  0.28983653     0.15800
H1076       H  0.21248152  0.62509683  0.20888089     0.15800
H1077       H  0.28805560  0.87346249  0.29059169     0.15800
H1078       H  0.28768269  0.87348795  0.20782059     0.15800
H1079       H  0.32532911  0.59146853  0.30619624     0.14100
H1080       H  0.34259384  0.02433259  0.30710221     0.14100
H1081       H  0.32474349  0.59168493  0.19395332     0.14100
H1082       H  0.34195721  0.02454920  0.19361135     0.14100
H1083       H  0.23830604  0.52379299  0.24910146     0.27300
H1084       H  0.26909547  0.97854213  0.24959040     0.27300
N1085       N  0.32959948  0.52586046  0.00001315    -0.35400
N1086       N  0.25849641  0.98073582  0.41580433    -0.56000
N1087       N  0.18580919  0.93291285  0.49935441    -0.35400
N1088       N  0.25755083  0.98203141  0.08338620    -0.56000
C1089       C  0.35370294  0.54694390  0.46588720     0.28200
C1090       C  0.35324472  0.54762006  0.03422672     0.28200
C1091       C  0.16180127  0.91341714  0.46469003     0.28200
C1092       C  0.16141276  0.91391313  0.03375103     0.28200
C1093       C  0.28719768  0.52460963  0.42630070     0.36800
C1094       C  0.21650234  0.97298642  0.42093878     0.36800
C1095       C  0.28627266  0.52563336  0.07232607     0.36800
C1096       C  0.21559171  0.97413403  0.07743001     0.36800
C1097       C  0.39586712  0.57728275  0.47875559    -0.20700
C1098       C  0.39555366  0.57776599  0.02192418    -0.20700
C1099       C  0.12211930  0.87766989  0.47733964    -0.20700
C1100       C  0.12186975  0.87800883  0.02087856    -0.20700
C1101       C  0.26331730  0.54036660  0.44632780    -0.21800
C1102       C  0.21970865  0.00990172  0.44091902    -0.21800
C1103       C  0.26252681  0.54092445  0.05107905    -0.21800
C1104       C  0.21889394  0.01059465  0.05637543    -0.21800
C1105       C  0.33501047  0.54838479  0.42693081    -0.17100
C1106       C  0.33406776  0.54940868  0.07260121    -0.17100
C1107       C  0.17563076  0.93103011  0.07515092    -0.17100
C1108       C  0.17640688  0.93001413  0.42328605    -0.17100
H1109       H  0.42245574  0.60086465  0.45949921     0.15800
H1110       H  0.42186050  0.60174519  0.04135644     0.15800
H1111       H  0.09574271  0.85406482  0.45779198     0.15800
H1112       H  0.09526952  0.85477128  0.04027241     0.15800
H1113       H  0.27649337  0.57133862  0.46320957     0.14100
H1114       H  0.19303195  0.01272297  0.45375533     0.14100
H1115       H  0.27580519  0.57172423  0.03393214     0.14100
H1116       H  0.19226065  0.01312586  0.04281214     0.14100
H1117       H  0.29646627  0.50214713  0.99980063     0.27300
H1118       H  0.21840000  0.95799635  0.49949326     0.27300
N1119       N  0.17689576  0.70273709  0.24917435    -0.35400
N1120       N  0.24133032  0.71911183  0.17007816    -0.56000
N1121       N  0.31378517  0.74985745  0.24891741    -0.35400
N1122       N  0.24183323  0.71963931  0.32815719    -0.56000
C1123       C  0.15174849  0.69587586  0.21490422     0.28200
C1124       C  0.15188845  0.69606211  0.28335811     0.28200
C1125       C  0.33462226  0.74692356  0.21495108     0.28200
C1126       C  0.33490600  0.74730125  0.28297440     0.28200
C1127       C  0.21575001  0.73855391  0.17136319     0.36800
C1128       C  0.28410869  0.75290209  0.16671026     0.36800
C1129       C  0.21612244  0.73895222  0.32689938     0.36800
C1130       C  0.28463291  0.75353416  0.33109967     0.36800
C1131       C  0.10895560  0.67943927  0.22751629    -0.20700
C1132       C  0.10904380  0.67955251  0.27061469    -0.20700
C1133       C  0.36922338  0.74165900  0.22746614    -0.20700
C1134       C  0.36940324  0.74189643  0.27060795    -0.20700
C1135       C  0.24267914  0.78393186  0.17487751    -0.21800
C1136       C  0.28523045  0.79301801  0.17201600    -0.21800
C1137       C  0.24293499  0.78429427  0.32292673    -0.21800
C1138       C  0.28558659  0.79354743  0.32562033    -0.21800
C1139       C  0.16879692  0.71642109  0.17568331    -0.17100
C1140       C  0.16909355  0.71662248  0.32265528    -0.17100
C1141       C  0.32287358  0.74974696  0.32438654    -0.17100
C1142       C  0.32236629  0.74912753  0.17349121    -0.17100
H1143       H  0.08153551  0.67312968  0.20793927     0.15800
H1144       H  0.08170179  0.67332496  0.29008185     0.15800
H1145       H  0.39180687  0.73782281  0.20775473     0.15800
H1146       H  0.39215013  0.73826590  0.29042124     0.15800
H1147       H  0.23253727  0.80751032  0.18247230     0.14100
H1148       H  0.31398592  0.82529946  0.17645914     0.14100
H1149       H  0.23258075  0.80768184  0.31513079     0.14100
H1150       H  0.31427825  0.82583795  0.32104919     0.14100
H1151       H  0.21080825  0.71859239  0.24920501     0.27300
H1152       H  0.28683725  0.75428217  0.24886522     0.27300
N1153       N  0.02118839  0.82617578  0.74926228    -0.35400
N1154       N  0.48205473  0.75747239  0.66436335    -0.56000
N1155       N  0.43802897  0.68475427  0.75004251    -0.35400
N1156       N  0.48174878  0.75731086  0.83466361    -0.56000
C1157       C  0.03931775  0.85208188  0.71504573     0.28200
C1158       C  0.03913711  0.85190931  0.78368502     0.28200
C1159       C  0.42549631  0.65833372  0.71632120     0.28200
C1160       C  0.42521830  0.65819245  0.78362492     0.28200
C1161       C  0.02478745  0.78793889  0.67356895     0.36800
C1162       C  0.47671554  0.71599095  0.67126717     0.36800
C1163       C  0.02436741  0.78758955  0.82515601     0.36800
C1164       C  0.47650387  0.71568099  0.82893204     0.36800
C1165       C  0.06421433  0.89599844  0.72804083    -0.20700
C1166       C  0.06408766  0.89589262  0.77100332    -0.20700
C1167       C  0.40450727  0.61446200  0.72847814    -0.20700
C1168       C  0.40433611  0.61437376  0.77122479    -0.20700
C1169       C  0.04337611  0.76599198  0.69277301    -0.21800
C1170       C  0.51425409  0.72121902  0.69005046    -0.21800
C1171       C  0.04288902  0.76528290  0.80677282    -0.21800
C1172       C  0.51395926  0.72056823  0.81049353    -0.21800
C1173       C  0.04443815  0.83555301  0.67576798    -0.17100
C1174       C  0.04430842  0.83522517  0.82288542    -0.17100
C1175       C  0.43598331  0.67461424  0.82420588    -0.17100
C1176       C  0.43617478  0.67492384  0.67584589    -0.17100
H1177       H  0.08498885  0.92452303  0.70883951     0.15800
H1178       H  0.08475834  0.92432351  0.79047416     0.15800
H1179       H  0.39594465  0.58621712  0.70932983     0.15800
H1180       H  0.39564790  0.58606069  0.79027655     0.15800
H1181       H  0.07389339  0.78118476  0.70974338     0.14100
H1182       H  0.51851001  0.69520275  0.70388336     0.14100
H1183       H  0.07326975  0.78012082  0.78980428     0.14100
H1184       H  0.51817878  0.69425486  0.79738925     0.14100
H1185       H  0.00295837  0.79157381  0.74917952     0.27300
H1186       H  0.45364484  0.71942618  0.75012205     0.27300
N1187       N  0.26733593  0.81963606  0.99930489    -0.35400
N1188       N  0.22760418  0.74280532  0.91408990    -0.56000
N1189       N  0.19408742  0.67081759  0.99885953    -0.35400
N1190       N  0.22603784  0.74275858  0.58400150    -0.56000
C1191       C  0.27376488  0.84459840  0.96575754     0.28200
C1192       C  0.27296868  0.84455376  0.53277321     0.28200
C1193       C  0.18845509  0.64536811  0.96469651     0.28200
C1194       C  0.18775410  0.64536950  0.53317050     0.28200
C1195       C  0.26413258  0.78363706  0.92152766     0.36800
C1196       C  0.23798486  0.71094696  0.92518124     0.36800
C1197       C  0.26270435  0.78364308  0.57728909     0.36800
C1198       C  0.23663540  0.71097470  0.57332668     0.36800
C1199       C  0.28176790  0.88655547  0.97767067    -0.20700
C1200       C  0.28125512  0.88652091  0.52065098    -0.20700
C1201       C  0.17135010  0.60144327  0.97738211    -0.20700
C1202       C  0.17084275  0.60142478  0.52050385    -0.20700
C1203       C  0.29529895  0.77666510  0.94063883    -0.21800
C1204       C  0.27751026  0.73169420  0.94560492    -0.21800
C1205       C  0.29420581  0.77677415  0.55901093    -0.21800
C1206       C  0.27645710  0.73184544  0.55375240    -0.21800
C1207       C  0.26615303  0.82604972  0.92607186    -0.17100
C1208       C  0.26479571  0.82605950  0.57245689    -0.17100
C1209       C  0.20869270  0.66310603  0.57237211    -0.17100
C1210       C  0.20989756  0.66310302  0.92584506    -0.17100
H1211       H  0.28570062  0.91365149  0.95809388     0.15800
H1212       H  0.28482000  0.91358297  0.54007145     0.15800
H1213       H  0.16532978  0.57337201  0.95804237     0.15800
H1214       H  0.16434064  0.57332385  0.54001516     0.15800
H1215       H  0.32583047  0.80190090  0.95413915     0.14100
H1216       H  0.29191958  0.71565540  0.96296390     0.14100
H1217       H  0.32493982  0.80207346  0.54608574     0.14100
H1218       H  0.29099582  0.71592222  0.53653253     0.14100
H1219       H  0.25270809  0.78502966  0.99925612     0.27300
H1220       H  0.20781051  0.70534831  0.99884261     0.27300
N1221       N  0.47365301  0.79701693  0.99959785    -0.35400
N1222       N  0.01960470  0.77651293  0.91601878    -0.56000
N1223       N  0.06224713  0.74633015  0.99936302    -0.35400
N1224       N  0.02009173  0.77779115  0.58264272    -0.56000
C1225       C  0.45510016  0.80352016  0.96521236     0.28200
C1226       C  0.45538256  0.80414578  0.53378855     0.28200
C1227       C  0.08454644  0.74633115  0.96519693     0.28200
C1228       C  0.08466995  0.74686665  0.53372611     0.28200
C1229       C  0.47556524  0.75901208  0.92255540     0.36800
C1230       C  0.02815419  0.74190915  0.91777775     0.36800
C1231       C  0.47587758  0.76007773  0.57695273     0.36800
C1232       C  0.02857962  0.74317601  0.58094767     0.36800
C1233       C  0.42884194  0.82039922  0.97771323    -0.20700
C1234       C  0.42902166  0.82079632  0.52081364    -0.20700
C1235       C  0.12280492  0.74811981  0.97797332    -0.20700
C1236       C  0.12288533  0.74845820  0.52131423    -0.20700
C1237       C  0.45851182  0.71548049  0.93539602    -0.21800
C1238       C  0.99059438  0.70435751  0.93131326    -0.21800
C1239       C  0.45848378  0.71623726  0.56483482    -0.21800
C1240       C  0.99074919  0.70530685  0.56833477    -0.21800
C1241       C  0.45204924  0.78317208  0.92569842    -0.17100
C1242       C  0.45237234  0.78419243  0.57349976    -0.17100
C1243       C  0.07070961  0.74702541  0.57525831    -0.17100
C1244       C  0.07042674  0.74588974  0.92351859    -0.17100
H1245       H  0.40735583  0.82620169  0.95810953     0.15800
H1246       H  0.40760852  0.82681365  0.54014984     0.15800
H1247       H  0.14814331  0.74937242  0.95837979     0.15800
H1248       H  0.14831983  0.75001570  0.54114177     0.15800
H1249       H  0.42747782  0.69533877  0.95037538     0.14100
H1250       H  0.98808060  0.67340591  0.94138012     0.14100
H1251       H  0.42708360  0.69575960  0.55045107     0.14100
H1252       H  0.98801055  0.67415912  0.55862292     0.14100
H1253       H  0.49252110  0.78178719  0.99976336     0.27300
H1254       H  0.03327778  0.74700772  0.99927917     0.27300
N1255       N  0.39184228  0.60645216  0.62751748    -0.02300
C1256       C  0.40505116  0.64864216  0.64072072     0.00300
C1257       C  0.38218449  0.66320033  0.61975136    -0.22600
C1258       C  0.35936859  0.63288717  0.58822250    -0.22800
C1259       C  0.36072471  0.59449774  0.59675313     0.00200
H1260       H  0.38335052  0.69281333  0.62909697     0.14000
H1261       H  0.34107252  0.63721724  0.56354719     0.14000
N1262       N  0.10113652  0.88465060  0.61650011    -0.02300
C1263       C  0.08979301  0.86463766  0.65538390     0.00300
C1264       C  0.12724176  0.88044166  0.67850749    -0.22600
C1265       C  0.16099759  0.90886523  0.65351275    -0.22800
C1266       C  0.14600732  0.90869347  0.61403318     0.00200
H1267       H  0.12990331  0.87241266  0.71055510     0.14000
H1268       H  0.19323482  0.92386501  0.66370454     0.14000
O1269       O  0.48204354  0.54957568  0.59309556    -0.87200
C1270       C  0.06364924  0.56316098  0.68692823     0.88900
Mg1271     Mg  0.41439773  0.50287631  0.59946568     1.58100
O1272       O  0.06457574  0.51479035  0.59209287    -0.86900
O1273       O  0.03682064  0.57740720  0.55012292    -0.74200
C1274       C  0.41430571  0.82340182  0.64411672     0.93900
O1275       O  0.46119711  0.54028036  0.69264183    -0.74000
O1276       O  0.38983505  0.83984536  0.64985979    -0.81500
Mg1277     Mg  0.00694233  0.59328102  0.64547133     1.58000
C1278       C  0.07596616  0.90245144  0.60005536     0.93800
O1279       O  0.05334636  0.65188207  0.60302796    -0.79800
H1280       H  0.07511439  0.51986654  0.53151846    -0.05100
C1281       C  0.50521837  0.93620824  0.68660539     0.88800
O1282       O  0.41861035  0.95395130  0.55549235    -0.74300
O1283       O  0.05042275  0.56780367  0.65168375    -0.87100
O1284       O  0.09320727  0.94445674  0.59639201    -0.79900
C1285       C  0.16690675  0.58174110  0.63676287     0.94000
C1286       C  0.09463060  0.67445223  0.60633140     0.93800
Mg1287     Mg  0.48931122  0.90169774  0.59735905     1.58000
O1288       O  0.45493325  0.84752636  0.64330626    -0.79800
O1289       O  0.03034757  0.95726389  0.55045663    -0.74000
O1290       O  0.14272034  0.59797338  0.64052939    -0.79900
O1291       O  0.45942513  0.61368052  0.63369139    -0.81600
O1292       O  0.34554298  0.89375065  0.62221283    -0.79900
C1293       C  0.05749726  0.99830395  0.55684225     0.88300
O1294       O  0.44310973  0.92246921  0.59755707    -0.87100
O1295       O  0.01849463  0.94333537  0.65035003    -0.87200
O1296       O  0.46623440  0.92438138  0.69539935    -0.74200
Mg1297     Mg  0.09035407  0.58427464  0.59564295     1.58000
O1298       O  0.15171274  0.54016447  0.63340725    -0.81600
H1299       H  0.47542940  0.56281130  0.53408077    -0.05300
O1300       O  0.42979429  0.97978631  0.65500599    -0.86900
H1301       H  0.41537035  0.97967869  0.71499478    -0.05100
H1302       H  0.42746059  0.90298845  0.53833208    -0.05300
C1303       C  0.43454302  0.49882577  0.68867117     0.88200
C1304       C  0.99686599  0.56309927  0.55801547     0.88800
C1305       C  0.42914922  0.92487180  0.56300387     0.88900
H1306       H  0.02773204  0.94220979  0.71159830    -0.05300
O1307       O  0.07677340  0.53542079  0.69177074    -0.74300
Mg1308     Mg  0.40881302  0.91122660  0.65483420     1.58000
H1309       H  0.06327549  0.58248430  0.71306382    -0.05300
C1310       C  0.41859332  0.58794575  0.63307660     0.93800
O1311       O  0.34491214  0.95633675  0.60961174    -0.81600
C1312       C  0.32551908  0.91506029  0.61658873     0.93900
O1313       O  0.11730732  0.65613903  0.60326495    -0.81500
Mg1314     Mg  0.08352440  0.98946983  0.64275296     1.58200
O1315       O  0.40134005  0.54669353  0.63787933    -0.79900
O1316       O  0.03537005  0.87748733  0.59816627    -0.81600
N1317       N  0.27956495  0.89167329  0.61911003    -0.02300
C1318       C  0.25501147  0.90384097  0.64237259     0.00300
C1319       C  0.21365740  0.86668297  0.64273880    -0.22600
C1320       C  0.21207927  0.83589528  0.61468141    -0.22800
C1321       C  0.25347358  0.84964657  0.60418679     0.00200
H1322       H  0.18896644  0.85918790  0.66543205     0.14000
H1323       H  0.18498608  0.80547417  0.60359110     0.14000
N1324       N  0.11503254  0.71955565  0.61961177    -0.02300
C1325       C  0.09845405  0.74718338  0.61221219     0.00300
C1326       C  0.11508698  0.77962404  0.64205028    -0.22600
C1327       C  0.14013558  0.77094813  0.66959049    -0.22800
C1328       C  0.14269291  0.73549057  0.65367532     0.00200
H1329       H  0.11100598  0.80786147  0.64231251     0.14000
H1330       H  0.15656914  0.78992808  0.69719999     0.14000
N1331       N  0.21163978  0.61066316  0.63084308    -0.02300
C1332       C  0.23930740  0.59524746  0.63996079     0.00300
C1333       C  0.26685186  0.60617487  0.60810207    -0.22600
C1334       C  0.25697420  0.62771570  0.57767633    -0.22800
C1335       C  0.22548619  0.63498084  0.59451974     0.00200
H1336       H  0.28803341  0.59380789  0.60745547     0.14000
H1337       H  0.27302177  0.63942115  0.54794413     0.14000
N1338       N  0.39522160  0.77843723  0.63139829    -0.02300
C1339       C  0.40718337  0.76571148  0.59494958     0.00300
C1340       C  0.36931173  0.73274560  0.57664977    -0.22600
C1341       C  0.33629752  0.72227208  0.60506560    -0.22800
C1342       C  0.35153058  0.75035831  0.63757849     0.00200
H1343       H  0.36646643  0.71609353  0.54734266     0.14000
H1344       H  0.30383611  0.69738139  0.60394175     0.14000
N1345       N  0.39265503  0.60587870  0.87240587    -0.02300
C1346       C  0.36174814  0.59365652  0.90324552     0.00300
C1347       C  0.36022131  0.63183833  0.91216401    -0.22600
C1348       C  0.38242620  0.66214387  0.88060493    -0.22800
C1349       C  0.40540883  0.64800786  0.85940870     0.00200
H1350       H  0.34176218  0.63581919  0.93676260     0.14000
H1351       H  0.38269647  0.69122041  0.87106029     0.14000
N1352       N  0.10170020  0.88396734  0.88198115    -0.02300
C1353       C  0.14656951  0.90777779  0.88437192     0.00300
C1354       C  0.16119214  0.90796809  0.84481219    -0.22600
C1355       C  0.12712690  0.87958267  0.81986202    -0.22800
C1356       C  0.08990483  0.86400706  0.84308891     0.00200
H1357       H  0.19336281  0.92309517  0.83449072     0.14000
H1358       H  0.12940673  0.87156149  0.78774369     0.14000
O1359       O  0.01779750  0.94403742  0.84867031    -0.87200
C1360       C  0.43065345  0.92517147  0.93746328     0.88900
Mg1361     Mg  0.08522278  0.98961679  0.85551985     1.58100
O1362       O  0.43047449  0.97950991  0.84506958    -0.86900
O1363       O  0.46506725  0.92316644  0.80286986    -0.74200
C1364       C  0.09547451  0.67396236  0.89212469     0.93900
O1365       O  0.03329632  0.95765621  0.94925650    -0.74000
O1366       O  0.11834788  0.65578068  0.89436943    -0.81500
Mg1367     Mg  0.49017467  0.90111324  0.90343610     1.58000
C1368       C  0.41957656  0.58765148  0.86651808     0.93800
O1369       O  0.45525619  0.84714204  0.85732164    -0.79800
H1370       H  0.41475344  0.97860474  0.78525554    -0.05100
C1371       C  0.99894610  0.56280089  0.94156399     0.88800
O1372       O  0.07787974  0.53538333  0.80679943    -0.74300
O1373       O  0.44433372  0.92237628  0.90298476    -0.87100
O1374       O  0.40248100  0.54646025  0.86149108    -0.79900
C1375       C  0.32656534  0.91517747  0.88296092     0.94000
C1376       C  0.41463476  0.82320337  0.85569138     0.93800
Mg1377     Mg  0.00750461  0.59254116  0.85388583     1.58000
O1378       O  0.05434000  0.65120813  0.89618060    -0.79800
O1379       O  0.46104316  0.53943584  0.80692397    -0.74000
O1380       O  0.34687895  0.89395033  0.87915875    -0.79900
O1381       O  0.03643404  0.87704409  0.90163853    -0.81600
O1382       O  0.14343083  0.59705707  0.85729813    -0.79900
C1383       C  0.43446865  0.49805037  0.81130771     0.88300
O1384       O  0.05044080  0.56620953  0.84730460    -0.87100
O1385       O  0.48323190  0.54933908  0.90660465    -0.87200
O1386       O  0.03909257  0.57708408  0.94877541    -0.74200
Mg1387     Mg  0.40923371  0.91101809  0.84543978     1.58000
O1388       O  0.34574639  0.95654820  0.88949813    -0.81600
H1389       H  0.02651710  0.94082280  0.78677711    -0.05300
O1390       O  0.06680468  0.51454427  0.90682126    -0.86900
H1391       H  0.08092073  0.51980302  0.96681684    -0.05100
H1392       H  0.06276446  0.58151346  0.78602394    -0.05300
C1393       C  0.06115496  0.99837498  0.94207700     0.88200
C1394       C  0.50416554  0.93536890  0.81159959     0.88800
C1395       C  0.06376930  0.56226210  0.81194626     0.88900
H1396       H  0.47813755  0.56251075  0.96597839    -0.05300
O1397       O  0.41980292  0.95408589  0.94457964    -0.74300
Mg1398     Mg  0.09189021  0.58389814  0.90266980     1.58000
H1399       H  0.42930181  0.90364936  0.96235867    -0.05300
C1400       C  0.07696306  0.90203166  0.89867951     0.93800
O1401       O  0.15318884  0.53975566  0.86504039    -0.81600
C1402       C  0.16794641  0.58124591  0.86159498     0.93900
O1403       O  0.39025637  0.83982940  0.85023095    -0.81500
Mg1404     Mg  0.41538405  0.50284695  0.90034511     1.58200
O1405       O  0.09439634  0.94410782  0.90198254    -0.79900
O1406       O  0.46038888  0.61351038  0.86579346    -0.81600
N1407       N  0.21259309  0.61050093  0.86759581    -0.02300
C1408       C  0.24034000  0.59532085  0.85835246     0.00300
C1409       C  0.26831955  0.60655841  0.89006247    -0.22600
C1410       C  0.25854216  0.62803841  0.92059600    -0.22800
C1411       C  0.22655685  0.63481949  0.90394739     0.00200
H1412       H  0.28959381  0.59426765  0.89056109     0.14000
H1413       H  0.27492100  0.63998588  0.95024987     0.14000
N1414       N  0.11530128  0.71905808  0.87895886    -0.02300
C1415       C  0.09852793  0.74650546  0.88669487     0.00300
C1416       C  0.11517323  0.77926746  0.85723597    -0.22200
C1417       C  0.14005911  0.77080360  0.82945182    -0.22800
C1418       C  0.14285204  0.73532388  0.84496872     0.00200
H1419       H  0.11100996  0.80745433  0.85727714     0.14000
H1420       H  0.15623391  0.78992307  0.80192676     0.14000
N1421       N  0.28060670  0.89145594  0.87952271    -0.02300
C1422       C  0.25582946  0.90356582  0.85634758     0.00300
C1423       C  0.21450001  0.86637103  0.85586705    -0.22600
C1424       C  0.21317386  0.83553374  0.88369594    -0.22800
C1425       C  0.25466737  0.84934292  0.89414984     0.00200
H1426       H  0.18963757  0.85885089  0.83321230     0.14000
H1427       H  0.18614109  0.80512251  0.89476302     0.14000
N1428       N  0.39541188  0.77797830  0.86725978    -0.02300
C1429       C  0.40695240  0.76481499  0.90374911     0.00300
C1430       C  0.36876032  0.73213465  0.92163338    -0.22600
C1431       C  0.33601745  0.72210157  0.89272987    -0.22800
C1432       C  0.35174802  0.75021879  0.86041962     0.00200
H1433       H  0.36551007  0.71537132  0.95095357     0.14000
H1434       H  0.30329637  0.69783077  0.89343901     0.14000
N1435       N  0.23003766  0.54867020  0.74916922    -0.35400
N1436       N  0.24395450  0.99513265  0.83431141    -0.56000
N1437       N  0.27652797  0.95309224  0.74949190    -0.35400
N1438       N  0.24388005  0.99568301  0.66401764    -0.56000
C1439       C  0.22576256  0.56897736  0.78329451     0.28200
C1440       C  0.22557226  0.56911094  0.71516660     0.28200
C1441       C  0.27880920  0.93140670  0.78333303     0.28200
C1442       C  0.27859877  0.93150929  0.71549672     0.28200
C1443       C  0.26125165  0.53984642  0.82825162     0.36800
C1444       C  0.27663976  0.98509731  0.83053448     0.36800
C1445       C  0.26108164  0.54036614  0.67025392     0.36800
C1446       C  0.27640713  0.98551638  0.66864284     0.36800
C1447       C  0.21598929  0.60127175  0.77078061    -0.20700
C1448       C  0.21586074  0.60134359  0.72784977    -0.20700
C1449       C  0.28398648  0.89619657  0.77084477    -0.20700
C1450       C  0.28381359  0.89622869  0.72774475    -0.20700
C1451       C  0.30420113  0.55780090  0.81657203    -0.21800
C1452       C  0.31339046  0.02344136  0.81782484    -0.21800
C1453       C  0.30380948  0.55815989  0.68301872    -0.21800
C1454       C  0.31296901  0.02375675  0.68212398    -0.21800
C1455       C  0.23704037  0.56287767  0.82415563    -0.17100
C1456       C  0.23661158  0.56312318  0.67427694    -0.17100
C1457       C  0.27146580  0.94163317  0.67472688    -0.17100
C1458       C  0.27190366  0.94137142  0.82417902    -0.17100
H1459       H  0.21309523  0.62525847  0.78985344     0.15800
H1460       H  0.21286207  0.62537019  0.70888940     0.15800
H1461       H  0.28797472  0.87341635  0.79060732     0.15800
H1462       H  0.28759453  0.87343249  0.70783755     0.15800
H1463       H  0.32545182  0.59151275  0.80600468     0.14100
H1464       H  0.34248679  0.02428008  0.80727941     0.14100
H1465       H  0.32487029  0.59173344  0.69416166     0.14100
H1466       H  0.34184922  0.02449348  0.69343539     0.14100
H1467       H  0.23844668  0.52389834  0.74910535     0.27300
H1468       H  0.26903300  0.97850789  0.74959883     0.27300
N1469       N  0.32959841  0.52585018  0.49993480    -0.35400
N1470       N  0.25846110  0.98071804  0.91579129    -0.56000
N1471       N  0.18580519  0.93293346  0.99929575    -0.35400
N1472       N  0.25751235  0.98201203  0.58341411    -0.56000
C1473       C  0.35371558  0.54696399  0.96597030     0.28200
C1474       C  0.35325942  0.54761326  0.53414362     0.28200
C1475       C  0.16177531  0.91343266  0.96464631     0.28200
C1476       C  0.16139219  0.91389225  0.53379407     0.28200
C1477       C  0.28722742  0.52460639  0.92637796     0.36800
C1478       C  0.21646435  0.97298550  0.92086660     0.36800
C1479       C  0.28630938  0.52563216  0.57224608     0.36800
C1480       C  0.21554659  0.97411695  0.57749562     0.36800
C1481       C  0.39587120  0.57730909  0.97884828    -0.20700
C1482       C  0.39556473  0.57775005  0.52183170    -0.20700
C1483       C  0.12210211  0.87768619  0.97731649    -0.20700
C1484       C  0.12185800  0.87798835  0.52090144    -0.20700
C1485       C  0.26335252  0.54031625  0.94649617    -0.21800
C1486       C  0.21967117  0.00993786  0.94076875    -0.21800
C1487       C  0.26257348  0.54089309  0.55093200    -0.21800
C1488       C  0.21884481  0.01060370  0.55649730    -0.21800
C1489       C  0.33503587  0.54838475  0.92699922    -0.17100
C1490       C  0.33409797  0.54940091  0.57252808    -0.17100
C1491       C  0.17557764  0.93101299  0.57519679    -0.17100
C1492       C  0.17635666  0.93002027  0.92323729    -0.17100
H1493       H  0.42246310  0.60089530  0.95959826     0.15800
H1494       H  0.42187904  0.60172781  0.54125771     0.15800
H1495       H  0.09571458  0.85407500  0.95778266     0.15800
H1496       H  0.09524397  0.85474971  0.54028150     0.15800
H1497       H  0.27653493  0.57127270  0.96340712     0.14100
H1498       H  0.19299305  0.01278402  0.95356335     0.14100
H1499       H  0.27585915  0.57167657  0.53375545     0.14100
H1500       H  0.19220871  0.01314833  0.54296056     0.14100
H1501       H  0.29646285  0.50214480  0.49972332     0.27300
H1502       H  0.21839596  0.95801689  0.99940715     0.27300
N1503       N  0.17682060  0.70268037  0.74917777    -0.35400
N1504       N  0.24124526  0.71904504  0.67007438    -0.56000
N1505       N  0.31370174  0.74977375  0.74891745    -0.35400
N1506       N  0.24176519  0.71957984  0.82816085    -0.56000
C1507       C  0.15167292  0.69583169  0.71491102     0.28200
C1508       C  0.15181966  0.69601651  0.78336345     0.28200
C1509       C  0.33453755  0.74684156  0.71494891     0.28200
C1510       C  0.33482918  0.74722500  0.78297331     0.28200
C1511       C  0.21567301  0.73849597  0.67136485     0.36800
C1512       C  0.28402669  0.75282946  0.66671113     0.36800
C1513       C  0.21606053  0.73889915  0.82690037     0.36800
C1514       C  0.28456674  0.75347013  0.83110093     0.36800
C1515       C  0.10888367  0.67941242  0.72752685    -0.20700
C1516       C  0.10897596  0.67952381  0.77062452    -0.20700
C1517       C  0.36914415  0.74158520  0.72746175    -0.20700
C1518       C  0.36932924  0.74182675  0.77060367    -0.20700
C1519       C  0.24260791  0.78387108  0.67489004    -0.21800
C1520       C  0.28515631  0.79294838  0.67202925    -0.21800
C1521       C  0.24287663  0.78423955  0.82292272    -0.21800
C1522       C  0.28552626  0.79348602  0.82561305    -0.21800
C1523       C  0.16872268  0.71637420  0.67569003    -0.17100
C1524       C  0.16903336  0.71657671  0.82265816    -0.17100
C1525       C  0.32280154  0.74967337  0.82438752    -0.17100
C1526       C  0.32227864  0.74904334  0.67348874    -0.17100
H1527       H  0.08146541  0.67311560  0.70795291     0.15800
H1528       H  0.08163946  0.67330777  0.79009467     0.15800
H1529       H  0.39172937  0.73775382  0.70774864     0.15800
H1530       H  0.39208261  0.73820519  0.79041531     0.15800
H1531       H  0.23246944  0.80745081  0.68249290     0.14100
H1532       H  0.31391445  0.82522507  0.67648329     0.14100
H1533       H  0.23252386  0.80762906  0.81512849     0.14100
H1534       H  0.31421958  0.82577370  0.82103579     0.14100
H1535       H  0.21073214  0.71852167  0.74920562     0.27300
H1536       H  0.28675017  0.75419225  0.74886727     0.27300
N1537       N  0.52118859  0.32617530  0.24926146    -0.35400
N1538       N  0.98205540  0.25747272  0.16436257    -0.56000
N1539       N  0.93802949  0.18475358  0.25004205    -0.35400
N1540       N  0.98174861  0.25730944  0.33466290    -0.56000
C1541       C  0.53931811  0.35208177  0.21504512     0.28200
C1542       C  0.53913698  0.35190851  0.28368438     0.28200
C1543       C  0.92549722  0.15833349  0.21632041     0.28200
C1544       C  0.92521914  0.15819132  0.28362414     0.28200
C1545       C  0.52478822  0.28793931  0.17356809     0.36800
C1546       C  0.97671637  0.21599151  0.17126721     0.36800
C1547       C  0.52436754  0.28758848  0.32515520     0.36800
C1548       C  0.97650400  0.21567958  0.32893198     0.36800
C1549       C  0.56421448  0.39599820  0.22804059    -0.20700
C1550       C  0.56408734  0.39589199  0.27100307    -0.20700
C1551       C  0.90450889  0.11446162  0.22847681    -0.20700
C1552       C  0.90433771  0.11437281  0.27122347    -0.20700
C1553       C  0.54337661  0.26599268  0.19277328    -0.21800
C1554       C  0.01425467  0.22121996  0.19005143    -0.21800
C1555       C  0.54288936  0.26528177  0.30677262    -0.21800
C1556       C  0.01395974  0.22056693  0.31049414    -0.21800
C1557       C  0.54443850  0.33555332  0.17576712    -0.17100
C1558       C  0.54430857  0.33522412  0.32288448    -0.17100
C1559       C  0.93598359  0.17461271  0.32420527    -0.17100
C1560       C  0.93617570  0.17492427  0.17584532    -0.17100
H1561       H  0.58498909  0.42452301  0.20883955     0.15800
H1562       H  0.58475769  0.42432275  0.29047420     0.15800
H1563       H  0.89594679  0.08621708  0.20932817     0.15800
H1564       H  0.89565009  0.08605959  0.29027483     0.15800
H1565       H  0.57389365  0.28118573  0.20974407     0.14100
H1566       H  0.01851056  0.19520393  0.20388495     0.14100
H1567       H  0.57327014  0.28011959  0.28980418     0.14100
H1568       H  0.01817960  0.19425356  0.29739042     0.14100
H1569       H  0.50295868  0.29157333  0.24917854     0.27300
H1570       H  0.95364485  0.21942547  0.25012204     0.27300
N1571       N  0.76733576  0.31963568  0.49930502    -0.35400
N1572       N  0.72760391  0.24280479  0.41409130    -0.56000
N1573       N  0.69408740  0.17081771  0.49886144    -0.35400
N1574       N  0.72603808  0.24275905  0.08400284    -0.56000
C1575       C  0.77376459  0.34459800  0.46575767     0.28200
C1576       C  0.77296831  0.34455373  0.03277340     0.28200
C1577       C  0.68845491  0.14536809  0.46469853     0.28200
C1578       C  0.68775431  0.14536991  0.03317286     0.28200
C1579       C  0.76413255  0.28363675  0.42152774     0.36800
C1580       C  0.73798494  0.21094668  0.42518263     0.36800
C1581       C  0.76270435  0.28364347  0.07728964     0.36800
C1582       C  0.73663575  0.21097515  0.07332856     0.36800
C1583       C  0.78176755  0.38655505  0.47767080    -0.20700
C1584       C  0.78125462  0.38652081  0.02065108    -0.20700
C1585       C  0.67134924  0.10144316  0.47738422    -0.20700
C1586       C  0.67084269  0.10142511  0.02050642    -0.20700
C1587       C  0.79529947  0.27666521  0.44063827    -0.21800
C1588       C  0.77751109  0.23169437  0.44560493    -0.21800
C1589       C  0.79420570  0.27677446  0.05901140    -0.21800
C1590       C  0.77645707  0.23184569  0.05375354    -0.21800
C1591       C  0.76615296  0.32604942  0.42607196    -0.17100
C1592       C  0.76479548  0.32605971  0.07245719    -0.17100
C1593       C  0.70869306  0.16310650  0.07237439    -0.17100
C1594       C  0.70989775  0.16310272  0.42584720    -0.17100
H1595       H  0.78570027  0.41365106  0.45809401     0.15800
H1596       H  0.78481946  0.41358289  0.04007150     0.15800
H1597       H  0.66532859  0.07337172  0.45804459     0.15800
H1598       H  0.66434053  0.07332425  0.04001787     0.15800
H1599       H  0.82583128  0.30190133  0.45413783     0.14100
H1600       H  0.79192090  0.21565602  0.46296384     0.14100
H1601       H  0.82493945  0.30207363  0.04608565     0.14100
H1602       H  0.79099550  0.21592228  0.03653349     0.14100
H1603       H  0.75270825  0.28502932  0.49925619     0.27300
H1604       H  0.70781102  0.20534850  0.49884432     0.27300
N1605       N  0.97365263  0.29701666  0.49959797    -0.35400
N1606       N  0.51960481  0.27651319  0.41601890    -0.56000
N1607       N  0.56224784  0.24633128  0.49936352    -0.35400
N1608       N  0.52009273  0.27779245  0.08264208    -0.56000
C1609       C  0.95509966  0.30351968  0.46521247     0.28200
C1610       C  0.95538305  0.30414658  0.03378903     0.28200
C1611       C  0.58454689  0.24633169  0.46519746     0.28200
C1612       C  0.58467109  0.24686792  0.03372627     0.28200
C1613       C  0.97556521  0.25901185  0.42255548     0.36800
C1614       C  0.52815455  0.24190956  0.41777817     0.36800
C1615       C  0.97587833  0.26007859  0.07695285     0.36800
C1616       C  0.52858079  0.24317740  0.08094773     0.36800
C1617       C  0.92884106  0.32039831  0.47771333    -0.20700
C1618       C  0.92902177  0.32079666  0.02081416    -0.20700
C1619       C  0.62280504  0.24811958  0.47797389    -0.20700
C1620       C  0.62288648  0.24845943  0.02131439    -0.20700
C1621       C  0.95851209  0.21548042  0.43539647    -0.21800
C1622       C  0.49059486  0.20435790  0.43131383    -0.21800
C1623       C  0.95848435  0.21623800  0.06483532    -0.21800
C1624       C  0.49075032  0.20530785  0.06833559    -0.21800
C1625       C  0.95204895  0.28317164  0.42569856    -0.17100
C1626       C  0.95237303  0.28419324  0.07350021    -0.17100
C1627       C  0.57071081  0.24702682  0.07525849    -0.17100
C1628       C  0.57042721  0.24589028  0.42351908    -0.17100
H1629       H  0.90735487  0.32620065  0.45810963     0.15800
H1630       H  0.90760843  0.32681364  0.04015040     0.15800
H1631       H  0.64814316  0.24937154  0.45838039     0.15800
H1632       H  0.64832101  0.25001700  0.04114194     0.15800
H1633       H  0.92747823  0.19533875  0.45037608     0.14100
H1634       H  0.48808124  0.17340640  0.44138083     0.14100
H1635       H  0.92708402  0.19576019  0.05045191     0.14100
H1636       H  0.48801173  0.17415997  0.05862436     0.14100
H1637       H  0.99252096  0.28178717  0.49976348     0.27300
H1638       H  0.53327878  0.24700950  0.49927961     0.27300
N1639       N  0.89184334  0.10645359  0.12751599    -0.02300
C1640       C  0.90505205  0.14864328  0.14071996     0.00300
C1641       C  0.88218427  0.16320112  0.11975197    -0.22600
C1642       C  0.85936795  0.13288819  0.08822302    -0.22800
C1643       C  0.86072502  0.09449905  0.09675245     0.00200
H1644       H  0.88334940  0.19281341  0.12909880     0.14000
H1645       H  0.84107111  0.13721818  0.06354847     0.14000
N1646       N  0.60113608  0.38465037  0.11649838    -0.02300
C1647       C  0.58979307  0.36463835  0.15538263     0.00300
C1648       C  0.62724206  0.38044305  0.17850597    -0.22600
C1649       C  0.66099756  0.40886613  0.15351072    -0.22800
C1650       C  0.64600690  0.40869343  0.11403117     0.00200
H1651       H  0.62990402  0.37241465  0.21055367     0.14000
H1652       H  0.69323492  0.42386630  0.16370212     0.14000
O1653       O  0.98204459  0.04957657  0.09309472    -0.87200
C1654       C  0.56364890  0.06316279  0.18692954     0.88900
Mg1655     Mg  0.91439861  0.00287711  0.09946380     1.58100
O1656       O  0.56457778  0.01479211  0.09209521    -0.86900
O1657       O  0.53682302  0.07740855  0.05012348    -0.74200
C1658       C  0.91430615  0.32340179  0.14411799     0.93900
O1659       O  0.96119623  0.04028045  0.19264079    -0.74000
O1660       O  0.88983546  0.33984519  0.14986181    -0.81500
Mg1661     Mg  0.50694263  0.09328236  0.14547086     1.58000
C1662       C  0.57596515  0.40245035  0.10005303     0.93800
O1663       O  0.55334752  0.15188358  0.10302811    -0.79800
H1664       H  0.57512138  0.01986854  0.03152170    -0.05100
C1665       C  0.00521973  0.43620855  0.18660408     0.88800
O1666       O  0.91860922  0.45395041  0.05549319    -0.74300
O1667       O  0.55042309  0.06780518  0.15168459    -0.87100
O1668       O  0.59320573  0.44445549  0.09638868    -0.79900
C1669       C  0.66690776  0.08174263  0.13676650     0.94000
C1670       C  0.59463174  0.17445363  0.10633191     0.93800
Mg1671     Mg  0.98931005  0.40169647  0.09735841     1.58000
O1672       O  0.95493366  0.34752645  0.14330713    -0.79800
O1673       O  0.53034393  0.45726189  0.05045556    -0.74000
O1674       O  0.64272155  0.09797528  0.14053217    -0.79900
O1675       O  0.95942583  0.11368128  0.13369035    -0.81600
O1676       O  0.84554237  0.39375038  0.12221593    -0.79900
C1677       C  0.55749331  0.49830219  0.05684042     0.88300
O1678       O  0.94310845  0.42246784  0.09755754    -0.87100
O1679       O  0.51849435  0.44333434  0.15034898    -0.87200
O1680       O  0.96623602  0.42438180  0.19539913    -0.74200
Mg1681     Mg  0.59035573  0.08427622  0.09564473     1.58000
O1682       O  0.65171343  0.04016586  0.13341195    -0.81600
H1683       H  0.97543204  0.06281275  0.03407969    -0.05300
O1684       O  0.92979485  0.47978613  0.15500678    -0.86900
H1685       H  0.91537251  0.47967923  0.21499594    -0.05100
H1686       H  0.92745801  0.40298672  0.03833278    -0.05300
C1687       C  0.93454216  0.99882592  0.18866963     0.88200
C1688       C  0.49686819  0.06310090  0.05801492     0.88800
C1689       C  0.92914745  0.42487041  0.06300458     0.88900
H1690       H  0.52773330  0.44220998  0.21159707    -0.05300
O1691       O  0.57677284  0.03542254  0.19177303    -0.74300
Mg1692     Mg  0.90881346  0.41122645  0.15483559     1.58000
H1693       H  0.56327461  0.08248629  0.21306471    -0.05300
C1694       C  0.91859402  0.08794675  0.13307476     0.93800
O1695       O  0.84491220  0.45633651  0.10961251    -0.81600
C1696       C  0.82551884  0.41506014  0.11658990     0.93900
O1697       O  0.61730845  0.15614037  0.10326613    -0.81500
Mg1698     Mg  0.58352397  0.48946868  0.14275045     1.58200
O1699       O  0.90134034  0.04669437  0.13787656    -0.79900
O1700       O  0.53536901  0.37748595  0.09816476    -0.81600
N1701       N  0.77956469  0.39167353  0.11911016    -0.02300
C1702       C  0.75501120  0.40384150  0.14237229     0.00300
C1703       C  0.71365715  0.36668352  0.14273868    -0.22600
C1704       C  0.71207904  0.33589562  0.11468155    -0.22800
C1705       C  0.75347334  0.34964681  0.10418701     0.00200
H1706       H  0.68896621  0.35918873  0.16543192     0.14000
H1707       H  0.68498589  0.30547450  0.10359128     0.14000
N1708       N  0.61503361  0.21955700  0.11961225    -0.02300
C1709       C  0.59845505  0.24718465  0.11221257     0.00300
C1710       C  0.61508745  0.27962490  0.14205105    -0.22600
C1711       C  0.64013586  0.27094892  0.16959146    -0.22800
C1712       C  0.64269349  0.23549159  0.15367618     0.00200
H1713       H  0.61100631  0.30786221  0.14231338     0.14000
H1714       H  0.65656914  0.28992875  0.19720111     0.14000
N1715       N  0.71164080  0.11066420  0.13084579    -0.02300
C1716       C  0.73930815  0.09524792  0.13996286     0.00300
C1717       C  0.76685159  0.10617426  0.10810341    -0.22600
C1718       C  0.75697377  0.12771525  0.07767799    -0.22800
C1719       C  0.72548663  0.13498134  0.09452207     0.00200
H1720       H  0.78803265  0.09380663  0.10745627     0.14000
H1721       H  0.77302060  0.13942012  0.04794539     0.14000
N1722       N  0.89522200  0.27843743  0.13139886    -0.02300
C1723       C  0.90718405  0.26571200  0.09495009     0.00300
C1724       C  0.86931257  0.23274630  0.07664999    -0.22600
C1725       C  0.83629813  0.22227263  0.10506555    -0.22800
C1726       C  0.85153089  0.25035859  0.13757869     0.00200
H1727       H  0.86646749  0.21609445  0.04734279     0.14000
H1728       H  0.80383692  0.19738159  0.10394143     0.14000
N1729       N  0.89265456  0.10587630  0.37240421    -0.02300
C1730       C  0.86174869  0.09365445  0.40324483     0.00300
C1731       C  0.86022312  0.13183674  0.41216451    -0.22600
C1732       C  0.88242775  0.16214253  0.38060556    -0.22800
C1733       C  0.90540874  0.14800577  0.35940772     0.00200
H1734       H  0.84176518  0.13581802  0.43676410     0.14000
H1735       H  0.88269990  0.19122043  0.37106264     0.14000
N1736       N  0.60170060  0.38396671  0.38197950    -0.02300
C1737       C  0.64656986  0.40777723  0.38437014     0.00300
C1738       C  0.66119241  0.40796739  0.34481036    -0.22600
C1739       C  0.62712708  0.37958158  0.31986042    -0.22800
C1740       C  0.58990513  0.36400596  0.34308754     0.00200
H1741       H  0.69336303  0.42309466  0.33448866     0.14000
H1742       H  0.62940673  0.37156025  0.28774210     0.14000
O1743       O  0.51779713  0.44403744  0.34866837    -0.87200
C1744       C  0.93065503  0.42517212  0.43746363     0.88900
Mg1745     Mg  0.58522260  0.48961725  0.35551666     1.58100
O1746       O  0.93047408  0.47950996  0.34507027    -0.86900
O1747       O  0.96506520  0.42316523  0.30286949    -0.74200
C1748       C  0.59547430  0.17396210  0.39212554     0.93900
O1749       O  0.53329878  0.45765664  0.44925463    -0.74000
O1750       O  0.61834764  0.15578040  0.39437103    -0.81500
Mg1751     Mg  0.99017540  0.40111331  0.40343482     1.58000
C1752       C  0.91957648  0.08764962  0.36651624     0.93800
O1753       O  0.95525531  0.34714145  0.35732113    -0.79800
H1754       H  0.91475146  0.47860464  0.28525667    -0.05100
C1755       C  0.49894514  0.06280071  0.44156386     0.88800
O1756       O  0.57788123  0.03538289  0.30680165    -0.74300
O1757       O  0.94433486  0.42237688  0.40298490    -0.87100
O1758       O  0.90248142  0.04645862  0.36148814    -0.79900
C1759       C  0.82656570  0.41517774  0.38296200     0.94000
C1760       C  0.91463383  0.32320273  0.35569213     0.93800
Mg1761     Mg  0.50750506  0.09254061  0.35388569     1.58000
O1762       O  0.55433968  0.15120789  0.39618066    -0.79800
O1763       O  0.96104522  0.03943531  0.30692303    -0.74000
O1764       O  0.84687968  0.39395069  0.37916270    -0.79900
O1765       O  0.53643480  0.37704472  0.40163606    -0.81600
O1766       O  0.64343124  0.09705644  0.35730089    -0.79900
C1767       C  0.93447063  0.99804983  0.31130648     0.88300
O1768       O  0.55044176  0.06620955  0.34730558    -0.87100
O1769       O  0.98323184  0.04933839  0.40660383    -0.87200
O1770       O  0.53909149  0.07708419  0.44877615    -0.74200
Mg1771     Mg  0.90923296  0.41101775  0.34544112     1.58000
O1772       O  0.84574643  0.45654862  0.38949811    -0.81600
H1773       H  0.52651496  0.44082126  0.28677501    -0.05300
O1774       O  0.56680392  0.01454382  0.40682338    -0.86900
H1775       H  0.58091633  0.01980259  0.46681968    -0.05100
H1776       H  0.56276646  0.08151298  0.28602493    -0.05300
C1777       C  0.56115762  0.49837526  0.44207488     0.88200
C1778       C  0.00416378  0.43536779  0.31159810     0.88800
C1779       C  0.56377078  0.06226177  0.31194764     0.88900
H1780       H  0.97813576  0.06251080  0.46597690    -0.05300
O1781       O  0.91980361  0.45408588  0.44458000    -0.74300
Mg1782     Mg  0.59188985  0.08389782  0.40267165     1.58000
H1783       H  0.92930423  0.40365041  0.46235907    -0.05300
C1784       C  0.57696383  0.40203197  0.39867663     0.93800
O1785       O  0.65318927  0.03975510  0.36504411    -0.81600
C1786       C  0.66794681  0.08124528  0.36159795     0.93900
O1787       O  0.89025526  0.33982877  0.35023297    -0.81500
Mg1788     Mg  0.91538413  0.00284622  0.40034368     1.58200
O1789       O  0.59439763  0.44410832  0.40197827    -0.79900
O1790       O  0.96038877  0.11350888  0.36579233    -0.81600
N1791       N  0.71259347  0.11050040  0.36759866    -0.02300
C1792       C  0.74034052  0.09532051  0.35835546     0.00300
C1793       C  0.76832016  0.10655839  0.39006545    -0.22600
C1794       C  0.75854246  0.12803810  0.42059906    -0.22800
C1795       C  0.72655702  0.13481889  0.40395024     0.00200
H1796       H  0.78959509  0.09426855  0.39056369     0.14000
H1797       H  0.77492155  0.13998595  0.45025278     0.14000
N1798       N  0.61530136  0.21905782  0.37895965    -0.02300
C1799       C  0.59852818  0.24650542  0.38669539     0.00300
C1800       C  0.61517358  0.27926717  0.35723625    -0.22200
C1801       C  0.64005926  0.27080293  0.32945222    -0.22800
C1802       C  0.64285206  0.23532325  0.34496943     0.00200
H1803       H  0.61101054  0.30745416  0.35727722     0.14000
H1804       H  0.65623407  0.28992214  0.30192705     0.14000
N1805       N  0.78060712  0.39145588  0.37952263    -0.02300
C1806       C  0.75582993  0.40356572  0.35634722     0.00300
C1807       C  0.71450055  0.36637081  0.35586648    -0.22600
C1808       C  0.71317432  0.33553360  0.38369548    -0.22800
C1809       C  0.75466771  0.34934280  0.39414969     0.00200
H1810       H  0.68963824  0.35885052  0.33321154     0.14000
H1811       H  0.68614157  0.30512242  0.39476262     0.14000
N1812       N  0.89541139  0.27797757  0.36726015    -0.02300
C1813       C  0.90695203  0.26481424  0.40374935     0.00300
C1814       C  0.86876007  0.23213323  0.42163333    -0.22600
C1815       C  0.83601729  0.22209972  0.39272958    -0.22800
C1816       C  0.85174771  0.25021746  0.36041968     0.00200
H1817       H  0.86550991  0.21536976  0.45095340     0.14000
H1818       H  0.80329618  0.19782888  0.39343860     0.14000
N1819       N  0.73003945  0.04867151  0.24917152    -0.35400
N1820       N  0.74395426  0.49513251  0.33430966    -0.56000
N1821       N  0.77652757  0.45309221  0.24949158    -0.35400
N1822       N  0.74388084  0.49568400  0.16401521    -0.56000
C1823       C  0.72576496  0.06897902  0.28329687     0.28200
C1824       C  0.72557460  0.06911264  0.21516897     0.28200
C1825       C  0.77880892  0.43140656  0.28333257     0.28200
C1826       C  0.77859852  0.43150955  0.21549626     0.28200
C1827       C  0.76125354  0.03984757  0.32825365     0.36800
C1828       C  0.77663973  0.48509724  0.33053412     0.36800
C1829       C  0.76108235  0.04036630  0.17025572     0.36800
C1830       C  0.77640755  0.48551717  0.16864251     0.36800
C1831       C  0.71599286  0.10127426  0.27078314    -0.20700
C1832       C  0.71586438  0.10134622  0.22785227    -0.20700
C1833       C  0.78398611  0.39619644  0.27084406    -0.20700
C1834       C  0.78381334  0.39622891  0.22774405    -0.20700
C1835       C  0.80420171  0.05780103  0.31656975    -0.21800
C1836       C  0.81339083  0.52344147  0.31782546    -0.21800
C1837       C  0.80381069  0.05816010  0.18301887    -0.21800
C1838       C  0.81296869  0.52375722  0.18212552    -0.21800
C1839       C  0.73704181  0.06287833  0.32415804    -0.17100
C1840       C  0.73661278  0.06312392  0.17427914    -0.17100
C1841       C  0.77146570  0.44163372  0.17472649    -0.17100
C1842       C  0.77190395  0.44137142  0.32417868    -0.17100
H1843       H  0.71309937  0.12526121  0.28985619     0.15800
H1844       H  0.71286639  0.12537325  0.20889194     0.15800
H1845       H  0.78797429  0.37341604  0.29060645     0.15800
H1846       H  0.78759459  0.37343303  0.20783669     0.15800
H1847       H  0.82545135  0.09151205  0.30599971     0.14100
H1848       H  0.84248758  0.52428042  0.30728107     0.14100
H1849       H  0.82487206  0.09173383  0.19416109     0.14100
H1850       H  0.84184822  0.52449369  0.19343872     0.14100
H1851       H  0.73844726  0.02389874  0.24910752     0.27300
H1852       H  0.76903254  0.47850778  0.24959876     0.27300
N1853       N  0.82959871  0.02584953  0.99993507    -0.35400
N1854       N  0.75846111  0.48071844  0.41579044    -0.56000
N1855       N  0.68580491  0.43293292  0.49929409    -0.35400
N1856       N  0.75751206  0.48201082  0.08341293    -0.56000
C1857       C  0.85371677  0.04696339  0.46597057     0.28200
C1858       C  0.85325962  0.04761348  0.03414362     0.28200
C1859       C  0.66177518  0.41343228  0.46464455     0.28200
C1860       C  0.66139193  0.41389212  0.03379202     0.28200
C1861       C  0.78722852  0.02460449  0.42637823     0.36800
C1862       C  0.71646416  0.47298549  0.42086513     0.36800
C1863       C  0.78630947  0.02563324  0.07224582     0.36800
C1864       C  0.71554652  0.47411623  0.07749393     0.36800
C1865       C  0.89587211  0.07730947  0.47884848    -0.20700
C1866       C  0.89556502  0.07774971  0.02183154    -0.20700
C1867       C  0.62210190  0.37768588  0.47731461    -0.20700
C1868       C  0.62185782  0.37798830  0.02089921    -0.20700
C1869       C  0.76335409  0.04031490  0.44649633    -0.21800
C1870       C  0.71967040  0.50993752  0.44076750    -0.21800
C1871       C  0.76257323  0.04089364  0.05093155    -0.21800
C1872       C  0.71884531  0.51060345  0.05649612    -0.21800
C1873       C  0.83503696  0.04838290  0.42699908    -0.17100
C1874       C  0.83409806  0.04940211  0.07252764    -0.17100
C1875       C  0.67557726  0.43101264  0.07519479    -0.17100
C1876       C  0.67635677  0.43002000  0.42323558    -0.17100
H1877       H  0.92246392  0.10089542  0.45959820     0.15800
H1878       H  0.92187932  0.10172795  0.04125725     0.15800
H1879       H  0.59571438  0.35407481  0.45778072     0.15800
H1880       H  0.59524375  0.35474957  0.04027916     0.15800
H1881       H  0.77653695  0.07127174  0.46340666     0.14100
H1882       H  0.69299191  0.51278328  0.45356175     0.14100
H1883       H  0.77585858  0.07167695  0.03375475     0.14100
H1884       H  0.69220955  0.51314857  0.04295920     0.14100
H1885       H  0.79646314  0.00214434  0.99972380     0.27300
H1886       H  0.71839565  0.45801628  0.49940557     0.27300
N1887       N  0.67682084  0.20268039  0.24917851    -0.35400
N1888       N  0.74124548  0.21904546  0.17007533    -0.56000
N1889       N  0.81370161  0.24977292  0.24891770    -0.35400
N1890       N  0.74176496  0.21957879  0.32816195    -0.56000
C1891       C  0.65167326  0.19583216  0.21491176     0.28200
C1892       C  0.65181972  0.19601598  0.28336419     0.28200
C1893       C  0.83453726  0.24684059  0.21494911     0.28200
C1894       C  0.83482868  0.24722352  0.28297352     0.28200
C1895       C  0.71567345  0.23849663  0.17136579     0.36800
C1896       C  0.78402695  0.25282966  0.16671160     0.36800
C1897       C  0.71606038  0.23889818  0.32690139     0.36800
C1898       C  0.78456657  0.25346906  0.33110134     0.36800
C1899       C  0.60888395  0.17941268  0.22752751    -0.20700
C1900       C  0.60897604  0.17952335  0.27062517    -0.20700
C1901       C  0.86914334  0.24158337  0.22746188    -0.20700
C1902       C  0.86932829  0.24182458  0.27060382    -0.20700
C1903       C  0.74260852  0.28387173  0.17489053    -0.21800
C1904       C  0.78515684  0.29294874  0.17202958    -0.21800
C1905       C  0.74287654  0.28423852  0.32292300    -0.21800
C1906       C  0.78552615  0.29348493  0.32561304    -0.21800
C1907       C  0.66872315  0.21637509  0.17569095    -0.17100
C1908       C  0.66903323  0.21657580  0.32265909    -0.17100
C1909       C  0.82280119  0.24967206  0.32438775    -0.17100
C1910       C  0.82227876  0.24904322  0.17348900    -0.17100
H1911       H  0.58146574  0.17311609  0.20795356     0.15800
H1912       H  0.58163944  0.17330695  0.29009535     0.15800
H1913       H  0.89172834  0.23775169  0.20774870     0.15800
H1914       H  0.89208129  0.23820238  0.29041543     0.15800
H1915       H  0.73247017  0.30745162  0.18249307     0.14100
H1916       H  0.81391509  0.32522535  0.17648347     0.14100
H1917       H  0.73252385  0.30762799  0.31512839     0.14100
H1918       H  0.81421945  0.32577254  0.32103530     0.14100
H1919       H  0.71073241  0.21852176  0.24920645     0.27300
H1920       H  0.78675049  0.25419212  0.24886759     0.27300
N1921       N  0.52131042  0.32622149  0.74925661    -0.35400
N1922       N  0.98213439  0.25754330  0.66436599    -0.56000
N1923       N  0.93816458  0.18487346  0.75004578    -0.35400
N1924       N  0.98180073  0.25739342  0.83466069    -0.56000
C1925       C  0.53943802  0.35212566  0.71504221     0.28200
C1926       C  0.53924790  0.35195686  0.78367714     0.28200
C1927       C  0.92550630  0.15844799  0.71632529     0.28200
C1928       C  0.92521261  0.15831160  0.78362927     0.28200
C1929       C  0.52488071  0.28797603  0.67355457     0.36800
C1930       C  0.97675727  0.21604001  0.67122903     0.36800
C1931       C  0.52443534  0.28763410  0.82517095     0.36800
C1932       C  0.97651547  0.21573959  0.82898250     0.36800
C1933       C  0.56431991  0.39604506  0.72803278    -0.20700
C1934       C  0.56418790  0.39594153  0.77099617    -0.20700
C1935       C  0.90428359  0.11457922  0.72848554    -0.20700
C1936       C  0.90410350  0.11449412  0.77122687    -0.20700
C1937       C  0.54344576  0.26598735  0.69272136    -0.21800
C1938       C  0.01429255  0.22122173  0.68998098    -0.21800
C1939       C  0.54293002  0.26528005  0.80683303    -0.21800
C1940       C  0.01396880  0.22057462  0.81058453    -0.21800
C1941       C  0.54456584  0.33559273  0.67577434    -0.17100
C1942       C  0.54441708  0.33527265  0.82287467    -0.17100
C1943       C  0.93596994  0.17470713  0.82422049    -0.17100
C1944       C  0.93619126  0.17500697  0.67584034    -0.17100
H1945       H  0.58508483  0.42457116  0.70882907     0.15800
H1946       H  0.58484629  0.42437552  0.79046862     0.15800
H1947       H  0.89550141  0.08629348  0.70933330     0.15800
H1948       H  0.89518746  0.08614196  0.79028408     0.15800
H1949       H  0.57396148  0.28114690  0.70969321     0.14100
H1950       H  0.01852190  0.19518087  0.70379524     0.14100
H1951       H  0.57330631  0.28007914  0.78985939     0.14100
H1952       H  0.01816092  0.19423310  0.79750764     0.14100
H1953       H  0.50310171  0.29162175  0.74917471     0.27300
H1954       H  0.95392101  0.21954934  0.75012337     0.27300
N1955       N  0.76728935  0.31962590  0.99932111    -0.35400
N1956       N  0.72762932  0.24283525  0.91408414    -0.56000
N1957       N  0.69408100  0.17081165  0.99886227    -0.35400
N1958       N  0.72608068  0.24279405  0.58400199    -0.56000
C1959       C  0.77374473  0.34460369  0.96577944     0.28200
C1960       C  0.77303056  0.34457625  0.53275273     0.28200
C1961       C  0.68846132  0.14537247  0.96469318     0.28200
C1962       C  0.68776233  0.14538249  0.53317772     0.28200
C1963       C  0.76415579  0.28366371  0.92154325     0.36800
C1964       C  0.73799053  0.21096945  0.92520314     0.36800
C1965       C  0.76275593  0.28367076  0.57728112     0.36800
C1966       C  0.73665544  0.21099626  0.57331360     0.36800
C1967       C  0.78173997  0.38655586  0.97769993    -0.20700
C1968       C  0.78131162  0.38653864  0.52062160    -0.20700
C1969       C  0.67136042  0.10144514  0.97736796    -0.20700
C1970       C  0.67084152  0.10143362  0.52052239    -0.20700
C1971       C  0.79529877  0.27668109  0.94069110    -0.21800
C1972       C  0.77749443  0.23170950  0.94566661    -0.21800
C1973       C  0.79423880  0.27678184  0.55898926    -0.21800
C1974       C  0.77646620  0.23185187  0.55371863    -0.21800
C1975       C  0.76617807  0.32607809  0.92608604    -0.17100
C1976       C  0.76486592  0.32609643  0.57244288    -0.17100
C1977       C  0.70870172  0.16312735  0.57237631    -0.17100
C1978       C  0.70990028  0.16312299  0.92584319    -0.17100
H1979       H  0.78569340  0.41366186  0.95812548     0.15800
H1980       H  0.78488376  0.41360704  0.54003694     0.15800
H1981       H  0.66534158  0.07337805  0.95802291     0.15800
H1982       H  0.66433635  0.07333537  0.54003867     0.15800
H1983       H  0.82582196  0.30191161  0.95420973     0.14100
H1984       H  0.79189213  0.21566533  0.96303478     0.14100
H1985       H  0.82497422  0.30207127  0.54605816     0.14100
H1986       H  0.79099087  0.21591917  0.53649128     0.14100
H1987       H  0.75266375  0.28501964  0.99926511     0.27300
H1988       H  0.70779538  0.20534126  0.99885509     0.27300
N1989       N  0.97364630  0.29701741  0.99963847    -0.35400
N1990       N  0.51965001  0.27656995  0.91602773    -0.56000
N1991       N  0.56225025  0.24634489  0.99934739    -0.35400
N1992       N  0.52014790  0.27784420  0.58263085    -0.56000
C1993       C  0.95511951  0.30354945  0.96524984     0.28200
C1994       C  0.95541835  0.30417872  0.53375171     0.28200
C1995       C  0.58456635  0.24636182  0.96518724     0.28200
C1996       C  0.58468460  0.24686812  0.53373578     0.28200
C1997       C  0.97561152  0.25907216  0.92257062     0.36800
C1998       C  0.52819445  0.24196044  0.91775807     0.36800
C1999       C  0.97593387  0.26013675  0.57693875     0.36800
C2000       C  0.52862481  0.24321910  0.58096816     0.36800
C2001       C  0.92884849  0.32041409  0.97775178    -0.20700
C2002       C  0.92904921  0.32082019  0.52077567    -0.20700
C2003       C  0.62281991  0.24814787  0.97797489    -0.20700
C2004       C  0.62289108  0.24844791  0.52131313    -0.20700
C2005       C  0.95855515  0.21553511  0.93539270    -0.21800
C2006       C  0.49063076  0.20440469  0.93128342    -0.21800
C2007       C  0.95853079  0.21628852  0.56484519    -0.21800
C2008       C  0.49078701  0.20534777  0.56837034    -0.21800
C2009       C  0.95209360  0.28323026  0.92572429    -0.17100
C2010       C  0.95243098  0.28425400  0.57347506    -0.17100
C2011       C  0.57074741  0.24705156  0.57527173    -0.17100
C2012       C  0.57046338  0.24593189  0.92350418    -0.17100
H2013       H  0.90737168  0.32622625  0.95814392     0.15800
H2014       H  0.90764964  0.32685333  0.54011623     0.15800
H2015       H  0.64816659  0.24940857  0.95838814     0.15800
H2016       H  0.64833291  0.25001115  0.54113377     0.15800
H2017       H  0.92752295  0.19539177  0.95037525     0.14100
H2018       H  0.48811120  0.17344490  0.94133171     0.14100
H2019       H  0.92712925  0.19580913  0.55046378     0.14100
H2020       H  0.48803804  0.17418905  0.55868090     0.14100
H2021       H  0.99251655  0.28179010  0.99980105     0.27300
H2022       H  0.53327912  0.24701895  0.99925807     0.27300
N2023       N  0.89182052  0.10648347  0.62757220    -0.02300
C2024       C  0.90506542  0.14869950  0.64072179     0.00300
C2025       C  0.88221695  0.16325605  0.61971967    -0.22600
C2026       C  0.85937962  0.13291559  0.58821791    -0.22800
C2027       C  0.86070176  0.09451769  0.59680465     0.00200
H2028       H  0.88340380  0.19288426  0.62903352     0.14000
H2029       H  0.84107709  0.13722932  0.56353885     0.14000
N2030       N  0.60123406  0.38465626  0.61649388    -0.02300
C2031       C  0.58991784  0.36467020  0.65538671     0.00300
C2032       C  0.62737820  0.38052647  0.67850493    -0.22600
C2033       C  0.66111770  0.40895142  0.65348929    -0.22800
C2034       C  0.64610062  0.40870737  0.61400487     0.00200
H2035       H  0.63005703  0.37253900  0.71056219     0.14000
H2036       H  0.69336522  0.42400656  0.66367105     0.14000
O2037       O  0.98194589  0.04958125  0.59315358    -0.87200
C2038       C  0.56361294  0.06307840  0.68691384     0.88900
Mg2039     Mg  0.91430518  0.00285305  0.59951533     1.58100
O2040       O  0.56441564  0.01473272  0.59201781    -0.86900
O2041       O  0.53669368  0.07745044  0.55015569    -0.74200
C2042       C  0.91438852  0.32346688  0.64411240     0.93900
O2043       O  0.96111562  0.04019136  0.69270590    -0.74000
O2044       O  0.88991865  0.33991385  0.64983544    -0.81500
Mg2045     Mg  0.50687139  0.09322722  0.64557545     1.58000
C2046       C  0.57608420  0.40251544  0.60013571     0.93800
O2047       O  0.55329253  0.15190599  0.60320126    -0.79800
H2048       H  0.57474042  0.01983418  0.53140661    -0.05100
C2049       C  0.00526953  0.43624494  0.68665560     0.88800
O2050       O  0.91869903  0.45396202  0.55546022    -0.74300
O2051       O  0.55032914  0.06771269  0.65169780    -0.87100
O2052       O  0.59335939  0.44453400  0.59656153    -0.79900
C2053       C  0.66680374  0.08165628  0.63664303     0.94000
C2054       C  0.59458696  0.17444013  0.60642179     0.93800
Mg2055     Mg  0.98943790  0.40177693  0.59739929     1.58000
O2056       O  0.95501673  0.34758681  0.64332060    -0.79800
O2057       O  0.53055202  0.45733378  0.55051723    -0.74000
O2058       O  0.64261171  0.09787476  0.64045417    -0.79900
O2059       O  0.95937233  0.11365673  0.63386130    -0.81600
O2060       O  0.84564575  0.39380507  0.62213462    -0.79900
C2061       C  0.55774295  0.49835741  0.55692485     0.88300
O2062       O  0.94324060  0.42255062  0.59755715    -0.87100
O2063       O  0.51857415  0.44339742  0.65041075    -0.87200
O2064       O  0.96628084  0.42442195  0.69542415    -0.74200
Mg2065     Mg  0.59022523  0.08422419  0.59562540     1.58000
O2066       O  0.65162072  0.04008866  0.63321049    -0.81600
H2067       H  0.97531117  0.06293978  0.53418383    -0.05300
O2068       O  0.92987963  0.47984318  0.65498273    -0.86900
H2069       H  0.91548034  0.47977936  0.71497730    -0.05100
H2070       H  0.92760412  0.40302412  0.53834075    -0.05300
C2071       C  0.93445047  0.99874450  0.68870537     0.88200
C2072       C  0.49675013  0.06316009  0.55808114     0.88800
C2073       C  0.92927345  0.42491476  0.56299578     0.88900
H2074       H  0.52776271  0.44221960  0.71166126    -0.05300
O2075       O  0.57675698  0.03534817  0.69170581    -0.74300
Mg2076     Mg  0.90889489  0.41128581  0.65481122     1.58000
H2077       H  0.56327917  0.08240530  0.71306457    -0.05300
C2078       C  0.91853795  0.08794195  0.63318586     0.93800
O2079       O  0.84501049  0.45639222  0.60957283    -0.81600
C2080       C  0.82561876  0.41511613  0.61654244     0.93900
O2081       O  0.61722305  0.15608629  0.60331369    -0.81500
Mg2082     Mg  0.58360891  0.48953884  0.64288125     1.58200
O2083       O  0.90125397  0.04667806  0.63794016    -0.79900
O2084       O  0.53548542  0.37757279  0.59823984    -0.81600
N2085       N  0.77966642  0.39173394  0.61908516    -0.02300
C2086       C  0.75512625  0.40392372  0.64234476     0.00300
C2087       C  0.71376662  0.36677439  0.64271626    -0.22600
C2088       C  0.71217278  0.33597505  0.61466261    -0.22800
C2089       C  0.75356232  0.34970512  0.60416939     0.00200
H2090       H  0.68908525  0.35928866  0.66541740     0.14000
H2091       H  0.68507285  0.30555714  0.60357394     0.14000
N2092       N  0.61506130  0.21957141  0.61963215    -0.02300
C2093       C  0.59850993  0.24722094  0.61221773     0.00300
C2094       C  0.61519287  0.27969378  0.64202413    -0.22600
C2095       C  0.64024636  0.27102119  0.66955979    -0.22800
C2096       C  0.64276178  0.23553230  0.65366782     0.00200
H2097       H  0.61113944  0.30794653  0.64227023     0.14000
H2098       H  0.65670961  0.29002214  0.69715034     0.14000
N2099       N  0.71154525  0.11060048  0.63081999    -0.02300
C2100       C  0.73921785  0.09520896  0.64000210     0.00300
C2101       C  0.76688045  0.10624986  0.60822796    -0.22600
C2102       C  0.75704215  0.12780611  0.57778336    -0.22800
C2103       C  0.72548123  0.13500110  0.59455054     0.00200
H2104       H  0.78809626  0.09391964  0.60762147     0.14000
H2105       H  0.77315910  0.13956496  0.54808844     0.14000
N2106       N  0.89530411  0.27850161  0.63139820    -0.02300
C2107       C  0.90724808  0.26578405  0.59493394     0.00300
C2108       C  0.86936449  0.23283935  0.57662912    -0.22600
C2109       C  0.83635901  0.22237392  0.60505254    -0.22800
C2110       C  0.85161178  0.25043377  0.63758066     0.00200
H2111       H  0.86650493  0.21619395  0.54731443     0.14000
H2112       H  0.80388750  0.19751037  0.60392986     0.14000
N2113       N  0.89262747  0.10591024  0.87235732    -0.02300
C2114       C  0.86173137  0.09367115  0.90321283     0.00300
C2115       C  0.86023208  0.13185377  0.91220203    -0.22600
C2116       C  0.88244104  0.16218943  0.88066757    -0.22800
C2117       C  0.90540317  0.14806413  0.85941984     0.00200
H2118       H  0.84176392  0.13580853  0.93680765     0.14000
H2119       H  0.88270999  0.19127122  0.87116118     0.14000
N2120       N  0.60178460  0.38396625  0.88199044    -0.02300
C2121       C  0.64665137  0.40777945  0.88440158     0.00300
C2122       C  0.66129762  0.40804144  0.84483670    -0.22600
C2123       C  0.62724559  0.37966708  0.81986260    -0.22800
C2124       C  0.59001191  0.36404403  0.84308366     0.00200
H2125       H  0.69347843  0.42321887  0.83452695     0.14000
H2126       H  0.62954115  0.37169027  0.78773347     0.14000
O2127       O  0.51786754  0.44409481  0.84864919    -0.87200
C2128       C  0.93074404  0.42518099  0.93748568     0.88900
Mg2129     Mg  0.58530052  0.48966798  0.85543671     1.58100
O2130       O  0.93054191  0.47954731  0.84511186    -0.86900
O2131       O  0.96511754  0.42320449  0.80286999    -0.74200
C2132       C  0.59543443  0.17396430  0.89203915     0.93900
O2133       O  0.53345896  0.45769826  0.94922763    -0.74000
O2134       O  0.61827270  0.15574590  0.89431986    -0.81500
Mg2135     Mg  0.99027955  0.40116844  0.90341746     1.58000
C2136       C  0.91952564  0.08766145  0.86640248     0.93800
O2137       O  0.95533117  0.34719026  0.85731233    -0.79800
H2138       H  0.91483855  0.47868465  0.78529388    -0.05100
C2139       C  0.49884498  0.06287167  0.94147947     0.88800
O2140       O  0.57784955  0.03532319  0.80682836    -0.74300
O2141       O  0.94443486  0.42242601  0.90300014    -0.87100
O2142       O  0.90241202  0.04646233  0.86140301    -0.79900
C2143       C  0.82664215  0.41521487  0.88300433     0.94000
C2144       C  0.91470892  0.32325495  0.85568943     0.93800
Mg2145     Mg  0.50744208  0.09251437  0.85376953     1.58000
O2146       O  0.55428752  0.15124195  0.89601258    -0.79800
O2147       O  0.96097094  0.03936951  0.80684390    -0.74000
O2148       O  0.84695532  0.39398564  0.87921552    -0.79900
O2149       O  0.53653378  0.37710818  0.90159067    -0.81600
O2150       O  0.64333439  0.09698369  0.85734202    -0.79900
C2151       C  0.93439314  0.99798911  0.81125494     0.88300
O2152       O  0.55036506  0.06615967  0.84726188    -0.87100
O2153       O  0.98314887  0.04936266  0.90652457    -0.87200
O2154       O  0.53898005  0.07713309  0.94872404    -0.74200
Mg2155     Mg  0.90930394  0.41106246  0.84546783     1.58000
O2156       O  0.84582381  0.45658130  0.88955804    -0.81600
H2157       H  0.52655714  0.44083389  0.78675820    -0.05300
O2158       O  0.56665090  0.01450198  0.90684772    -0.86900
H2159       H  0.58062532  0.01981145  0.96687193    -0.05100
H2160       H  0.56275134  0.08144472  0.78598541    -0.05300
C2161       C  0.56135960  0.49840169  0.94203952     0.88200
C2162       C  0.00421803  0.43540337  0.81158582     0.88800
C2163       C  0.56372895  0.06220036  0.81192689     0.88900
H2164       H  0.97803078  0.06264684  0.96585758    -0.05300
O2165       O  0.91986623  0.45406884  0.94462821    -0.74300
Mg2166     Mg  0.59177374  0.08386425  0.90266008     1.58000
H2167       H  0.92940433  0.40364694  0.96236298    -0.05300
C2168       C  0.57706547  0.40207581  0.89862815     0.93800
O2169       O  0.65310196  0.03970083  0.86519195    -0.81600
C2170       C  0.66785227  0.08118316  0.86168654     0.93900
O2171       O  0.89033173  0.33988420  0.85024457    -0.81500
Mg2172     Mg  0.91530891  0.00284472  0.90027423     1.58200
O2173       O  0.59452675  0.44416134  0.90186285    -0.79900
O2174       O  0.96033852  0.11350856  0.86562270    -0.81600
N2175       N  0.71250544  0.11045242  0.86760841    -0.02300
C2176       C  0.74025985  0.09530035  0.85829835     0.00300
C2177       C  0.76836331  0.10666042  0.88991841    -0.22600
C2178       C  0.75861866  0.12814561  0.92047538    -0.22800
C2179       C  0.72655342  0.13484819  0.90391041     0.00200
H2180       H  0.78968273  0.09442016  0.89037105     0.14000
H2181       H  0.77506969  0.14014982  0.95008970     0.14000
N2182       N  0.61532856  0.21908529  0.87893763    -0.02300
C2183       C  0.59857789  0.24655149  0.88668562     0.00300
C2184       C  0.61525802  0.27933253  0.85724596    -0.22200
C2185       C  0.64014098  0.27086502  0.82946175    -0.22800
C2186       C  0.64290498  0.23536470  0.84496439     0.00200
H2187       H  0.61111942  0.30753267  0.85729849     0.14000
H2188       H  0.65633497  0.28999632  0.80194823     0.14000
N2189       N  0.78068641  0.39150377  0.87953419    -0.02300
C2190       C  0.75593019  0.40363214  0.85634508     0.00300
C2191       C  0.71459546  0.36644708  0.85584735    -0.22600
C2192       C  0.71324394  0.33560291  0.88368368    -0.22800
C2193       C  0.75472795  0.34939040  0.89415239     0.00200
H2194       H  0.68974726  0.35894153  0.83317915     0.14000
H2195       H  0.68620255  0.30520002  0.89475240     0.14000
N2196       N  0.89548298  0.27802935  0.86725544    -0.02300
C2197       C  0.90700282  0.26488190  0.90376636     0.00300
C2198       C  0.86879586  0.23224291  0.92166831    -0.22600
C2199       C  0.83606020  0.22222180  0.89276125    -0.22800
C2200       C  0.85181477  0.25028929  0.86042123     0.00200
H2201       H  0.86552846  0.21549925  0.95100429     0.14000
H2202       H  0.80332400  0.19800075  0.89348072     0.14000
N2203       N  0.72981384  0.04850334  0.74916560    -0.35400
N2204       N  0.74414049  0.49524984  0.83439158    -0.56000
N2205       N  0.77659996  0.45313363  0.74948101    -0.35400
N2206       N  0.74407948  0.49582040  0.66392562    -0.56000
C2207       C  0.72550821  0.06879310  0.78329073     0.28200
C2208       C  0.72531106  0.06891801  0.71515979     0.28200
C2209       C  0.77889262  0.43145452  0.78332300     0.28200
C2210       C  0.77868506  0.43156263  0.71548176     0.28200
C2211       C  0.76107357  0.03973891  0.82824430     0.36800
C2212       C  0.77680268  0.48518965  0.83053192     0.36800
C2213       C  0.76089170  0.04024225  0.67025629     0.36800
C2214       C  0.77657956  0.48562378  0.66862976     0.36800
C2215       C  0.71565867  0.10103138  0.77077236    -0.20700
C2216       C  0.71552497  0.10109720  0.72784239    -0.20700
C2217       C  0.78406180  0.39624025  0.77083038    -0.20700
C2218       C  0.78389166  0.39627659  0.72772887    -0.20700
C2219       C  0.80405655  0.05772856  0.81667585    -0.21800
C2220       C  0.81352885  0.52351068  0.81772477    -0.21800
C2221       C  0.80365813  0.05807898  0.68290553    -0.21800
C2222       C  0.81311295  0.52383522  0.68222127    -0.21800
C2223       C  0.73686806  0.06277346  0.82414644    -0.17100
C2224       C  0.73642727  0.06300233  0.67427642    -0.17100
C2225       C  0.77159420  0.44171640  0.67470486    -0.17100
C2226       C  0.77202579  0.44144276  0.82417753    -0.17100
H2227       H  0.71272851  0.12499957  0.78983960     0.15800
H2228       H  0.71248498  0.12509967  0.70888377     0.15800
H2229       H  0.78805573  0.37346244  0.79059114     0.15800
H2230       H  0.78768241  0.37348789  0.70782002     0.15800
H2231       H  0.82532872  0.09146834  0.80619337     0.14100
H2232       H  0.84259437  0.52433268  0.80710315     0.14100
H2233       H  0.82474510  0.09168604  0.69395237     0.14100
H2234       H  0.84195550  0.52454833  0.69361559     0.14100
H2235       H  0.73830626  0.02379352  0.74910382     0.27300
H2236       H  0.76909366  0.47854097  0.74959028     0.27300
N2237       N  0.82960068  0.02586059  0.50001366    -0.35400
N2238       N  0.75849660  0.48073689  0.91580336    -0.56000
N2239       N  0.68580907  0.43291289  0.99935248    -0.35400
N2240       N  0.75755062  0.48202969  0.58338506    -0.56000
C2241       C  0.85370335  0.04694229  0.96588723     0.28200
C2242       C  0.85324541  0.04762158  0.53422698     0.28200
C2243       C  0.66180136  0.41341731  0.96468800     0.28200
C2244       C  0.66141238  0.41391256  0.53374931     0.28200
C2245       C  0.78719817  0.02460822  0.92630093     0.36800
C2246       C  0.71650233  0.47298710  0.92093713     0.36800
C2247       C  0.78627273  0.02563446  0.57232560     0.36800
C2248       C  0.71559172  0.47413286  0.57742849     0.36800
C2249       C  0.89586757  0.07728116  0.97875544    -0.20700
C2250       C  0.89555422  0.07776782  0.52192437    -0.20700
C2251       C  0.62211936  0.37766999  0.97733741    -0.20700
C2252       C  0.62186937  0.37800844  0.52087670    -0.20700
C2253       C  0.76331850  0.04036599  0.94632801    -0.21800
C2254       C  0.71970807  0.50990204  0.94091766    -0.21800
C2255       C  0.76252649  0.04092440  0.55107750    -0.21800
C2256       C  0.71889450  0.51059399  0.55637452    -0.21800
C2257       C  0.83501091  0.04838293  0.92693071    -0.17100
C2258       C  0.83406789  0.04941035  0.57260107    -0.17100
C2259       C  0.67563041  0.43102934  0.57514926    -0.17100
C2260       C  0.67640716  0.43001453  0.92328412    -0.17100
H2261       H  0.92245629  0.10086248  0.95949880     0.15800
H2262       H  0.92186067  0.10174798  0.54135635     0.15800
H2263       H  0.59574287  0.35406497  0.95778963     0.15800
H2264       H  0.59526906  0.35477091  0.54027049     0.15800
H2265       H  0.77649522  0.07133827  0.96320943     0.14100
H2266       H  0.69303100  0.51272289  0.95375361     0.14100
H2267       H  0.77580451  0.07172397  0.53393032     0.14100
H2268       H  0.69226155  0.51312572  0.54281111     0.14100
H2269       H  0.79646768  0.00214663  0.49980126     0.27300
H2270       H  0.71839985  0.45799639  0.99949148     0.27300
N2271       N  0.67689608  0.20273692  0.74917499    -0.35400
N2272       N  0.74133001  0.21911140  0.67007922    -0.56000
N2273       N  0.81378513  0.24985649  0.74891772    -0.35400
N2274       N  0.74183367  0.21963890  0.82815804    -0.56000
C2275       C  0.65174872  0.19587602  0.71490499     0.28200
C2276       C  0.65188890  0.19606177  0.78335887     0.28200
C2277       C  0.83462197  0.24692231  0.71495131     0.28200
C2278       C  0.83490609  0.24730034  0.78297465     0.28200
C2279       C  0.71575009  0.23855392  0.67136390     0.36800
C2280       C  0.78410846  0.25290128  0.66671079     0.36800
C2281       C  0.71612299  0.23895191  0.82690009     0.36800
C2282       C  0.78463339  0.25353371  0.83110011     0.36800
C2283       C  0.60895590  0.17943937  0.72751720    -0.20700
C2284       C  0.60904421  0.17955221  0.77061560    -0.20700
C2285       C  0.86922308  0.24165764  0.72746626    -0.20700
C2286       C  0.86940317  0.24189528  0.77060810    -0.20700
C2287       C  0.74267955  0.28393188  0.67487744    -0.21800
C2288       C  0.78523070  0.29301750  0.67201600    -0.21800
C2289       C  0.74293561  0.28429392  0.82292702    -0.21800
C2290       C  0.78558718  0.29354701  0.82562051    -0.21800
C2291       C  0.66879709  0.21642156  0.67568419    -0.17100
C2292       C  0.66909412  0.21662226  0.82265596    -0.17100
C2293       C  0.82287389  0.24974633  0.82438683    -0.17100
C2294       C  0.82236583  0.24912626  0.67349146    -0.17100
H2295       H  0.58153579  0.17312999  0.70794032     0.15800
H2296       H  0.58170227  0.17332457  0.79008289     0.15800
H2297       H  0.89180642  0.23782128  0.70775478     0.15800
H2298       H  0.89215011  0.23826476  0.79042134     0.15800
H2299       H  0.73253795  0.30751071  0.68247155     0.14100
H2300       H  0.81398636  0.32529883  0.67645884     0.14100
H2301       H  0.73258144  0.30768149  0.81513085     0.14100
H2302       H  0.81427883  0.32583750  0.82104915     0.14100
H2303       H  0.71080855  0.21859226  0.74920559     0.27300
H2304       H  0.78683731  0.25428141  0.74886562     0.27300
N2305       N  0.52131103  0.82622254  0.24925321    -0.35400
N2306       N  0.98213355  0.75753986  0.16437245    -0.56000
N2307       N  0.93816577  0.68487233  0.25005361    -0.35400
N2308       N  0.98180239  0.75739519  0.33466696    -0.56000
C2309       C  0.53943886  0.85212721  0.21503919     0.28200
C2310       C  0.53924814  0.85195743  0.28367412     0.28200
C2311       C  0.92550645  0.65844557  0.21633405     0.28200
C2312       C  0.92521488  0.65831179  0.28363791     0.28200
C2313       C  0.52488001  0.78797813  0.17354950     0.36800
C2314       C  0.97675654  0.71603667  0.17123631     0.36800
C2315       C  0.52443435  0.78763375  0.32516681     0.36800
C2316       C  0.97651798  0.71574170  0.32898919     0.36800
C2317       C  0.56432100  0.89604635  0.22803029    -0.20700
C2318       C  0.56418826  0.89594225  0.27099368    -0.20700
C2319       C  0.90428377  0.61457717  0.22849591    -0.20700
C2320       C  0.90410530  0.61449385  0.27123725    -0.20700
C2321       C  0.54344509  0.76598800  0.19271326    -0.21800
C2322       C  0.01429222  0.72121916  0.18998814    -0.21800
C2323       C  0.54292811  0.76527919  0.30682795    -0.21800
C2324       C  0.01397116  0.72057701  0.31059072    -0.21800
C2325       C  0.54456615  0.83559476  0.17577091    -0.17100
C2326       C  0.54441703  0.83527261  0.32287143    -0.17100
C2327       C  0.93597300  0.67470875  0.32422839    -0.17100
C2328       C  0.93619053  0.67500339  0.17584861    -0.17100
H2329       H  0.58508596  0.92457271  0.20882689     0.15800
H2330       H  0.58484666  0.92437591  0.29046647     0.15800
H2331       H  0.89550055  0.58629037  0.20934489     0.15800
H2332       H  0.89519019  0.58614271  0.29029572     0.15800
H2333       H  0.57396109  0.78114627  0.20968458     0.14100
H2334       H  0.01852192  0.69517876  0.20380298     0.14100
H2335       H  0.57330436  0.78007801  0.28985426     0.14100
H2336       H  0.01816368  0.69423555  0.29751432     0.14100
H2337       H  0.50310254  0.79162285  0.24917067     0.27300
H2338       H  0.95392211  0.71954822  0.25013011     0.27300
N2339       N  0.76729636  0.81962868  0.49932266    -0.35400
N2340       N  0.72762232  0.74283381  0.41408359    -0.56000
N2341       N  0.69408135  0.67081472  0.49886200    -0.35400
N2342       N  0.72608804  0.74279726  0.08400092    -0.56000
C2343       C  0.77374590  0.84460445  0.46578062     0.28200
C2344       C  0.77303835  0.84457896  0.03275422     0.28200
C2345       C  0.68845591  0.64537352  0.46469289     0.28200
C2346       C  0.68776554  0.64538477  0.03317759     0.28200
C2347       C  0.76414918  0.78366182  0.42154339     0.36800
C2348       C  0.73798394  0.71096741  0.42519932     0.36800
C2349       C  0.76276428  0.78367367  0.07728239     0.36800
C2350       C  0.73666190  0.71099905  0.07331183     0.36800
C2351       C  0.78174196  0.88655689  0.47770115    -0.20700
C2352       C  0.78131722  0.88654059  0.02062295    -0.20700
C2353       C  0.67135300  0.60144626  0.47736872    -0.20700
C2354       C  0.67084224  0.60143533  0.02052316    -0.20700
C2355       C  0.79529304  0.77667829  0.44068790    -0.21800
C2356       C  0.77748833  0.73170662  0.44566188    -0.21800
C2357       C  0.79424700  0.77678432  0.05899069    -0.21800
C2358       C  0.77647371  0.73185426  0.05371875    -0.21800
C2359       C  0.76617258  0.82607659  0.42608773    -0.17100
C2360       C  0.76487514  0.82609977  0.07244459    -0.17100
C2361       C  0.70870743  0.66313033  0.07237500    -0.17100
C2362       C  0.70989277  0.66312120  0.42584135    -0.17100
H2363       H  0.78569109  0.91366137  0.45812692     0.15800
H2364       H  0.78489015  0.91360927  0.04003834     0.15800
H2365       H  0.66533021  0.57337781  0.45802374     0.15800
H2366       H  0.66433784  0.57333743  0.04003960     0.15800
H2367       H  0.82581679  0.80190805  0.45420628     0.14100
H2368       H  0.79188505  0.71566175  0.46303061     0.14100
H2369       H  0.82498313  0.80207377  0.04606090     0.14100
H2370       H  0.79099892  0.71592152  0.03649231     0.14100
H2371       H  0.75267092  0.78502247  0.49926782     0.27300
H2372       H  0.70779870  0.70534470  0.49885444     0.27300
N2373       N  0.97364470  0.79701509  0.49964327    -0.35400
N2374       N  0.51965138  0.77657268  0.41602048    -0.56000
N2375       N  0.56225004  0.74634518  0.49933919    -0.35400
N2376       N  0.52014657  0.77784172  0.08262465    -0.56000
C2377       C  0.95511736  0.80354602  0.46525444     0.28200
C2378       C  0.95541902  0.80417952  0.03375652     0.28200
C2379       C  0.58456600  0.74636230  0.46517887     0.28200
C2380       C  0.58468461  0.74686766  0.03372795     0.28200
C2381       C  0.97560915  0.75906785  0.42257626     0.36800
C2382       C  0.52819445  0.74196222  0.41775028     0.36800
C2383       C  0.97593454  0.76013849  0.07694484     0.36800
C2384       C  0.52862433  0.74321728  0.08096068     0.36800
C2385       C  0.92884712  0.82041184  0.47775574    -0.20700
C2386       C  0.92904995  0.82082087  0.02078005    -0.20700
C2387       C  0.62281978  0.74814862  0.47796615    -0.20700
C2388       C  0.62289111  0.74844765  0.02130508    -0.20700
C2389       C  0.95855273  0.71553009  0.43539634    -0.21800
C2390       C  0.49063057  0.70440729  0.43127654    -0.21800
C2391       C  0.95853108  0.71629071  0.06484968    -0.21800
C2392       C  0.49078681  0.70534582  0.06836242    -0.21800
C2393       C  0.95209052  0.78322517  0.42572967    -0.17100
C2394       C  0.95243268  0.78425681  0.07348076    -0.17100
C2395       C  0.57074744  0.74705086  0.07526389    -0.17100
C2396       C  0.57046278  0.74593242  0.42349601    -0.17100
H2397       H  0.90737052  0.82622418  0.45814768     0.15800
H2398       H  0.90765116  0.82685510  0.04012061     0.15800
H2399       H  0.64816636  0.74940942  0.45837920     0.15800
H2400       H  0.64833315  0.75001114  0.04112558     0.15800
H2401       H  0.92751931  0.69538481  0.45037618     0.14100
H2402       H  0.48811025  0.67344715  0.44132490     0.14100
H2403       H  0.92713026  0.69581289  0.05046639     0.14100
H2404       H  0.48803841  0.67418762  0.05867205     0.14100
H2405       H  0.99251459  0.78178735  0.49980633     0.27300
H2406       H  0.53327877  0.74701894  0.49925034     0.27300
N2407       N  0.89181652  0.60647731  0.12758349    -0.02300
C2408       C  0.90506403  0.64869485  0.14073062     0.00300
C2409       C  0.88222229  0.66325519  0.11972242    -0.22600
C2410       C  0.85938571  0.63291435  0.08822072    -0.22800
C2411       C  0.86070175  0.59451394  0.09681219     0.00200
H2412       H  0.88341570  0.69288798  0.12903058     0.14000
H2413       H  0.84108698  0.63722953  0.06353864     0.14000
N2414       N  0.60123426  0.88465911  0.11649136    -0.02300
C2415       C  0.58991809  0.86467166  0.15538347     0.00300
C2416       C  0.62737863  0.88052544  0.17850092    -0.22600
C2417       C  0.66111817  0.90895038  0.15348517    -0.22800
C2418       C  0.64610074  0.90870988  0.11400188     0.00200
H2419       H  0.63005758  0.87253622  0.21055755     0.14000
H2420       H  0.69336584  0.92400366  0.16366553     0.14000
O2421       O  0.98194156  0.54957823  0.09316146    -0.87200
C2422       C  0.56361566  0.56308508  0.18690638     0.88900
Mg2423     Mg  0.91430105  0.50284937  0.09951957     1.58100
O2424       O  0.56441840  0.51473304  0.09201345    -0.86900
O2425       O  0.53669501  0.57744757  0.05014731    -0.74200
C2426       C  0.91439148  0.82347292  0.14411776     0.93900
O2427       O  0.96111028  0.54017782  0.19271347    -0.74000
O2428       O  0.88992217  0.83992043  0.14984159    -0.81500
Mg2429     Mg  0.50687593  0.59323404  0.14556418     1.58000
C2430       C  0.57608330  0.90251661  0.10013257     0.93800
O2431       O  0.55329660  0.65190662  0.10318418    -0.79800
H2432       H  0.57474167  0.51982848  0.03140185    -0.05100
C2433       C  0.00527415  0.93625229  0.18665844     0.88800
O2434       O  0.91870095  0.95396151  0.05545930    -0.74300
O2435       O  0.55033250  0.56771817  0.15168958    -0.87100
O2436       O  0.59335672  0.94453488  0.09655870    -0.79900
C2437       C  0.66680619  0.58165826  0.13663948     0.94000
C2438       C  0.59459051  0.67444166  0.10641011     0.93800
Mg2439     Mg  0.98944171  0.90178064  0.09740337     1.58000
O2440       O  0.95501969  0.84759252  0.14332604    -0.79800
O2441       O  0.53055251  0.95733742  0.05051763    -0.74000
O2442       O  0.64261451  0.59787760  0.14044705    -0.79900
O2443       O  0.95936721  0.61364871  0.13387761    -0.81600
O2444       O  0.84565147  0.89381063  0.12213787    -0.79900
C2445       C  0.55774183  0.99836088  0.05692827     0.88300
O2446       O  0.94324516  0.92255515  0.09755915    -0.87100
O2447       O  0.51857043  0.94339315  0.15041055    -0.87200
O2448       O  0.96628606  0.92443104  0.19542755    -0.74200
Mg2449     Mg  0.59022820  0.58422514  0.09561743     1.58000
O2450       O  0.65162293  0.54009051  0.13320869    -0.81600
H2451       H  0.97530615  0.56294413  0.03419434    -0.05300
O2452       O  0.92988558  0.97985209  0.15498032    -0.86900
H2453       H  0.91548604  0.97979475  0.21497400    -0.05100
H2454       H  0.92760655  0.90302287  0.03834434    -0.05300
C2455       C  0.93444402  0.49873174  0.18870899     0.88200
C2456       C  0.49675141  0.56315702  0.05807318     0.88800
C2457       C  0.92927643  0.92491561  0.06299746     0.88900
H2458       H  0.52775403  0.94221117  0.21166163    -0.05300
O2459       O  0.57675923  0.53535472  0.19170050    -0.74300
Mg2460     Mg  0.90890036  0.91129379  0.15481385     1.58000
H2461       H  0.56328174  0.58241316  0.21305598    -0.05300
C2462       C  0.91853281  0.58793455  0.13319870     0.93800
O2463       O  0.84501378  0.95639567  0.10957147    -0.81600
C2464       C  0.82562329  0.91512005  0.11654386     0.93900
O2465       O  0.61722756  0.65608875  0.10330323    -0.81500
Mg2466     Mg  0.58360615  0.98953559  0.14288311     1.58200
O2467       O  0.90124799  0.54667010  0.13794918    -0.79900
O2468       O  0.53548475  0.87757262  0.09823592    -0.81600
N2469       N  0.77967094  0.89173593  0.11908625    -0.02300
C2470       C  0.75512889  0.90392405  0.14234463     0.00300
C2471       C  0.71376961  0.86677403  0.14271442    -0.22600
C2472       C  0.71217822  0.83597530  0.11466150    -0.22800
C2473       C  0.75356870  0.84970687  0.10417025     0.00200
H2474       H  0.68908648  0.85928765  0.16541373     0.14000
H2475       H  0.68507911  0.80555715  0.10357189     0.14000
N2476       N  0.61506224  0.71957176  0.11962431    -0.02300
C2477       C  0.59851071  0.74722116  0.11220953     0.00300
C2478       C  0.61519296  0.77969404  0.14201586    -0.22600
C2479       C  0.64024543  0.77102098  0.16955245    -0.22800
C2480       C  0.64276185  0.73553246  0.15366081     0.00200
H2481       H  0.61113876  0.80794647  0.14226193     0.14000
H2482       H  0.65670731  0.79002135  0.19714368     0.14000
N2483       N  0.71154792  0.61060168  0.13081792    -0.02300
C2484       C  0.73922035  0.59521053  0.14000187     0.00300
C2485       C  0.76688656  0.60625488  0.10823038    -0.22600
C2486       C  0.75704961  0.62781132  0.07778479    -0.22800
C2487       C  0.72548605  0.63500365  0.09454944     0.00200
H2488       H  0.78810350  0.59392618  0.10762570     0.14000
H2489       H  0.77316919  0.63957204  0.04809128     0.14000
N2490       N  0.89530651  0.77850741  0.13140354    -0.02300
C2491       C  0.90725012  0.76578821  0.09494006     0.00300
C2492       C  0.86936636  0.73284156  0.07663694    -0.22600
C2493       C  0.83636160  0.72237636  0.10506112    -0.22800
C2494       C  0.85161449  0.75043899  0.13758692     0.00200
H2495       H  0.86650645  0.71619454  0.04732316     0.14000
H2496       H  0.80388969  0.69751313  0.10393969     0.14000
N2497       N  0.89263168  0.60591552  0.37236847    -0.02300
C2498       C  0.86172947  0.59367402  0.40321813     0.00300
C2499       C  0.86022336  0.63185429  0.41220005    -0.22600
C2500       C  0.88243478  0.66218926  0.38066578    -0.22800
C2501       C  0.90540543  0.64806772  0.35942742     0.00200
H2502       H  0.84175137  0.63580847  0.43680205     0.14000
H2503       H  0.88269778  0.69126636  0.37115187     0.14000
N2504       N  0.60178504  0.88396507  0.38198817    -0.02300
C2505       C  0.64665189  0.90777851  0.38439880     0.00300
C2506       C  0.66129768  0.90804328  0.34483290    -0.22600
C2507       C  0.62724553  0.87966888  0.31985905    -0.22800
C2508       C  0.59001203  0.86404396  0.34308078     0.00200
H2509       H  0.69347831  0.92322199  0.33452174     0.14000
H2510       H  0.62954089  0.87169344  0.28772941     0.14000
O2511       O  0.51787150  0.94409997  0.34865041    -0.87200
C2512       C  0.93074243  0.92518229  0.43748768     0.88900
Mg2513     Mg  0.58530361  0.98967146  0.35544047     1.58100
O2514       O  0.93053760  0.97954021  0.34510927    -0.86900
O2515       O  0.96511336  0.92319638  0.30287335    -0.74200
C2516       C  0.59543043  0.67396307  0.39202657     0.93900
O2517       O  0.53345797  0.95769493  0.44922920    -0.74000
O2518       O  0.61826751  0.65574335  0.39430737    -0.81500
Mg2519     Mg  0.99027683  0.90116632  0.40342207     1.58000
C2520       C  0.91953033  0.58766702  0.36641646     0.93800
O2521       O  0.95532804  0.84718503  0.35731993    -0.79800
H2522       H  0.91483413  0.97867069  0.28529044    -0.05100
C2523       C  0.49884366  0.56287555  0.44147071     0.88800
O2524       O  0.57784458  0.53531560  0.30682195    -0.74300
O2525       O  0.94443159  0.92242350  0.40300247    -0.87100
O2526       O  0.90241687  0.54646840  0.36141322    -0.79900
C2527       C  0.82663899  0.91521266  0.38300566     0.94000
C2528       C  0.91470575  0.82325004  0.35569639     0.93800
Mg2529     Mg  0.50743672  0.59250915  0.35375742     1.58000
O2530       O  0.55428297  0.65124180  0.39599547    -0.79800
O2531       O  0.96097605  0.53938093  0.30685238    -0.74000
O2532       O  0.84695092  0.89398206  0.37921709    -0.79900
O2533       O  0.53653472  0.87710846  0.40158784    -0.81600
O2534       O  0.64332987  0.59698044  0.35733187    -0.79900
C2535       C  0.93439881  0.49799974  0.31125903     0.88300
O2536       O  0.55035949  0.56615359  0.34725288    -0.87100
O2537       O  0.98315179  0.54936250  0.40653338    -0.87200
O2538       O  0.53897853  0.57713571  0.44871464    -0.74200
Mg2539     Mg  0.90929991  0.91105632  0.34547034     1.58000
O2540       O  0.84582185  0.95657941  0.38955731    -0.81600
H2541       H  0.52656714  0.94084405  0.28675997    -0.05300
O2542       O  0.56664763  0.51450113  0.40684208    -0.86900
H2543       H  0.58062407  0.51981680  0.46686600    -0.05100
H2544       H  0.56274491  0.58143501  0.28597570    -0.05300
C2545       C  0.56136006  0.99839870  0.44204420     0.88200
C2546       C  0.00421428  0.93539634  0.31158838     0.88800
C2547       C  0.56372321  0.56219242  0.31191843     0.88900
H2548       H  0.97803323  0.56263741  0.46586918    -0.05300
O2549       O  0.91986597  0.95407172  0.44462763    -0.74300
Mg2550     Mg  0.59176995  0.58386298  0.40265030     1.58000
H2551       H  0.92940316  0.90365025  0.46236684    -0.05300
C2552       C  0.57706657  0.90207527  0.39862641     0.93800
O2553       O  0.65309889  0.53969938  0.36518800    -0.81600
C2554       C  0.66784857  0.58118154  0.36168099     0.93900
O2555       O  0.89032866  0.83987930  0.35025117    -0.81500
Mg2556     Mg  0.91531152  0.50284568  0.40027879     1.58200
O2557       O  0.59452890  0.94416086  0.40186264    -0.79900
O2558       O  0.96034328  0.61351414  0.36564042    -0.81600
N2559       N  0.71250130  0.61045208  0.36760600    -0.02300
C2560       C  0.74025573  0.59529893  0.35829926     0.00300
C2561       C  0.76835231  0.60665225  0.38992442    -0.22600
C2562       C  0.75860564  0.62813725  0.42047990    -0.22800
C2563       C  0.72654513  0.63484457  0.40391035     0.00200
H2564       H  0.78966938  0.59440908  0.39038005     0.14000
H2565       H  0.77505245  0.64013823  0.45009652     0.14000
N2566       N  0.61532733  0.71908555  0.37892952    -0.02300
C2567       C  0.59857685  0.74655183  0.38667738     0.00300
C2568       C  0.61525837  0.77933375  0.35723862    -0.22200
C2569       C  0.64014274  0.77086728  0.32945544    -0.22800
C2570       C  0.64290534  0.73536617  0.34495780     0.00200
H2571       H  0.61112034  0.80753408  0.35729155     0.14000
H2572       H  0.65633833  0.78999956  0.30194284     0.14000
N2573       N  0.78068324  0.89150325  0.37953607    -0.02300
C2574       C  0.75592862  0.90363264  0.35634563     0.00300
C2575       C  0.71459344  0.86644835  0.35584724    -0.22600
C2576       C  0.71323989  0.83560383  0.38368453    -0.22800
C2577       C  0.75472331  0.84939040  0.39415481     0.00200
H2578       H  0.68974665  0.85894322  0.33317758     0.14000
H2579       H  0.68619779  0.80520073  0.39475191     0.14000
N2580       N  0.89547942  0.77802440  0.36726181    -0.02300
C2581       C  0.90699968  0.76487607  0.40377186     0.00300
C2582       C  0.86879307  0.73223628  0.42167334    -0.22600
C2583       C  0.83605700  0.72221548  0.39276664    -0.22800
C2584       C  0.85181124  0.75028458  0.36042726     0.00200
H2585       H  0.86552617  0.71549184  0.45100874     0.14000
H2586       H  0.80332181  0.69799101  0.39348530     0.14000
N2587       N  0.72981441  0.54850464  0.24916548    -0.35400
N2588       N  0.74414418  0.99525220  0.33439680    -0.56000
N2589       N  0.77660030  0.95313369  0.24948091    -0.35400
N2590       N  0.74407706  0.99581786  0.16392967    -0.56000
C2591       C  0.72550877  0.56879458  0.28329038     0.28200
C2592       C  0.72531207  0.56891938  0.21515943     0.28200
C2593       C  0.77889268  0.93145451  0.28332324     0.28200
C2594       C  0.77868547  0.93156262  0.21548195     0.28200
C2595       C  0.76107192  0.53973850  0.32824542     0.36800
C2596       C  0.77680517  0.98519128  0.33053087     0.36800
C2597       C  0.76089305  0.54024352  0.17025713     0.36800
C2598       C  0.77657852  0.98562248  0.16862848     0.36800
C2599       C  0.71566003  0.60103338  0.27077158    -0.20700
C2600       C  0.71552639  0.60109895  0.22784159    -0.20700
C2601       C  0.78406159  0.89624002  0.27083103    -0.20700
C2602       C  0.78389192  0.89627656  0.22772951    -0.20700
C2603       C  0.80405694  0.55772943  0.31668354    -0.21800
C2604       C  0.81352882  0.02351075  0.31771621    -0.21800
C2605       C  0.80365731  0.55807854  0.18291289    -0.21800
C2606       C  0.81311389  0.02383539  0.18221409    -0.21800
C2607       C  0.73686721  0.56277408  0.32414642    -0.17100
C2608       C  0.73642822  0.56300319  0.17427619    -0.17100
C2609       C  0.77159458  0.94171602  0.17470491    -0.17100
C2610       C  0.77202639  0.94144342  0.32417777    -0.17100
H2611       H  0.71273022  0.62500199  0.28983847     0.15800
H2612       H  0.71248659  0.62510131  0.20888258     0.15800
H2613       H  0.78805545  0.87346220  0.29059196     0.15800
H2614       H  0.78768298  0.87348807  0.20782084     0.15800
H2615       H  0.82533122  0.59147068  0.30620594     0.14100
H2616       H  0.84259165  0.02433124  0.30708799     0.14100
H2617       H  0.82474251  0.59168408  0.19396438     0.14100
H2618       H  0.84195890  0.02455007  0.19360306     0.14100
H2619       H  0.73830621  0.52379435  0.24910411     0.27300
H2620       H  0.76909422  0.97854120  0.24958931     0.27300
N2621       N  0.82960016  0.52586183  0.00001856    -0.35400
N2622       N  0.75849835  0.98073140  0.41580299    -0.56000
N2623       N  0.68580995  0.93291350  0.49934985    -0.35400
N2624       N  0.75754987  0.98203512  0.08338344    -0.56000
C2625       C  0.85370307  0.54694571  0.46589293     0.28200
C2626       C  0.85324520  0.54762084  0.03423241     0.28200
C2627       C  0.66180241  0.91341649  0.46468561     0.28200
C2628       C  0.66141247  0.91391537  0.03374667     0.28200
C2629       C  0.78719675  0.52461049  0.42630784     0.36800
C2630       C  0.71650442  0.97298355  0.42093380     0.36800
C2631       C  0.78627287  0.52563118  0.07233209     0.36800
C2632       C  0.71559088  0.97413742  0.07742547     0.36800
C2633       C  0.89586703  0.57728531  0.47876128    -0.20700
C2634       C  0.89555360  0.57776862  0.02192995    -0.20700
C2635       C  0.62212038  0.87766959  0.47733552    -0.20700
C2636       C  0.62186974  0.87801044  0.02087452    -0.20700
C2637       C  0.76331656  0.54036488  0.44633962    -0.21800
C2638       C  0.71971054  0.00990127  0.44090863    -0.21800
C2639       C  0.76252684  0.54092302  0.05108670    -0.21800
C2640       C  0.71889361  0.01059681  0.05636790    -0.21800
C2641       C  0.83500966  0.54838619  0.42693692    -0.17100
C2642       C  0.83406802  0.54940715  0.07260757    -0.17100
C2643       C  0.67563014  0.93103315  0.07514643    -0.17100
C2644       C  0.67640829  0.93001226  0.42328143    -0.17100
H2645       H  0.92245506  0.60086844  0.45950515     0.15800
H2646       H  0.92186010  0.60174772  0.04136261     0.15800
H2647       H  0.59574403  0.85406387  0.45778802     0.15800
H2648       H  0.59526953  0.85477318  0.04026855     0.15800
H2649       H  0.77649279  0.57133630  0.46322247     0.14100
H2650       H  0.69303378  0.01272422  0.45374222     0.14100
H2651       H  0.77580526  0.57172368  0.03394136     0.14100
H2652       H  0.69226048  0.01312723  0.04280311     0.14100
H2653       H  0.79646739  0.50214705  0.99980601     0.27300
H2654       H  0.71840059  0.95799739  0.49948843     0.27300
N2655       N  0.67689615  0.70273803  0.24916937    -0.35400
N2656       N  0.74133266  0.71911612  0.17007657    -0.56000
N2657       N  0.81378575  0.74985891  0.24892301    -0.35400
N2658       N  0.74183136  0.71963657  0.32815555    -0.56000
C2659       C  0.65174910  0.69587764  0.21489912     0.28200
C2660       C  0.65188874  0.69606278  0.28335295     0.28200
C2661       C  0.83462380  0.74692714  0.21495658     0.28200
C2662       C  0.83490515  0.74729970  0.28297989     0.28200
C2663       C  0.71575129  0.73855710  0.17136051     0.36800
C2664       C  0.78411119  0.75290746  0.16671493     0.36800
C2665       C  0.71612203  0.73895092  0.32689670     0.36800
C2666       C  0.78463096  0.75353015  0.33110438     0.36800
C2667       C  0.60895625  0.67944137  0.22751097    -0.20700
C2668       C  0.60904421  0.67955382  0.27060934    -0.20700
C2669       C  0.86922429  0.74166125  0.22747138    -0.20700
C2670       C  0.86940263  0.74189548  0.27061320    -0.20700
C2671       C  0.74267933  0.78393476  0.17488050    -0.21800
C2672       C  0.78523142  0.79302227  0.17202327    -0.21800
C2673       C  0.74293591  0.78429333  0.32293009    -0.21800
C2674       C  0.78558666  0.79354483  0.32562774    -0.21800
C2675       C  0.66879783  0.71642277  0.17567824    -0.17100
C2676       C  0.66909369  0.71662303  0.32265009    -0.17100
C2677       C  0.82287117  0.74974236  0.32439213    -0.17100
C2678       C  0.82236869  0.74913283  0.17349677    -0.17100
H2679       H  0.58153639  0.67313246  0.20793391     0.15800
H2680       H  0.58170220  0.67332641  0.29007642     0.15800
H2681       H  0.89180816  0.73782590  0.20775977     0.15800
H2682       H  0.89214852  0.73826305  0.29042631     0.15800
H2683       H  0.73253572  0.80751165  0.18247624     0.14100
H2684       H  0.81398615  0.82530348  0.17647048     0.14100
H2685       H  0.73258351  0.80768267  0.31513568     0.14100
H2686       H  0.81427924  0.82583556  0.32106082     0.14100
H2687       H  0.71080860  0.71859298  0.24920063     0.27300
H2688       H  0.78683790  0.75428378  0.24887087     0.27300
N2689       N  0.52118920  0.82617574  0.74925792    -0.35400
N2690       N  0.98205487  0.75746906  0.66436921    -0.56000
N2691       N  0.93803104  0.68475279  0.75005010    -0.35400
N2692       N  0.98175010  0.75731224  0.83466932    -0.56000
C2693       C  0.53931874  0.85208281  0.71504200     0.28200
C2694       C  0.53913692  0.85190853  0.78368125     0.28200
C2695       C  0.92549770  0.65833116  0.71632958     0.28200
C2696       C  0.92522124  0.65819217  0.78363317     0.28200
C2697       C  0.52478765  0.78794119  0.67356256     0.36800
C2698       C  0.97671623  0.71598811  0.67127499     0.36800
C2699       C  0.52436652  0.78758783  0.82515114     0.36800
C2700       C  0.97650636  0.71568275  0.82893871     0.36800
C2701       C  0.56421494  0.89599905  0.72803805    -0.20700
C2702       C  0.56408707  0.89589225  0.77100053    -0.20700
C2703       C  0.90450868  0.61445978  0.72848786    -0.20700
C2704       C  0.90433873  0.61437310  0.77123452    -0.20700
C2705       C  0.54337615  0.76599300  0.69276447    -0.21800
C2706       C  0.01425480  0.72121772  0.69005981    -0.21800
C2707       C  0.54288741  0.76528072  0.80676736    -0.21800
C2708       C  0.01396191  0.72057039  0.81050026    -0.21800
C2709       C  0.54443895  0.83555513  0.67576356    -0.17100
C2710       C  0.54430825  0.83522374  0.82288124    -0.17100
C2711       C  0.93598650  0.67461539  0.82421344    -0.17100
C2712       C  0.93617563  0.67492047  0.67585397    -0.17100
H2713       H  0.58498942  0.92452423  0.70883733     0.15800
H2714       H  0.58475720  0.92432273  0.79047204     0.15800
H2715       H  0.89594520  0.58621398  0.70934064     0.15800
H2716       H  0.89565107  0.58606088  0.79028738     0.15800
H2717       H  0.57389358  0.78118472  0.70973453     0.14100
H2718       H  0.01851112  0.69520234  0.70389422     0.14100
H2719       H  0.57326807  0.78011837  0.78979871     0.14100
H2720       H  0.01818218  0.69425711  0.79739697     0.14100
H2721       H  0.50295985  0.79157374  0.74917431     0.27300
H2722       H  0.95364663  0.71942466  0.75012873     0.27300
N2723       N  0.76734063  0.81963731  0.99930662    -0.35400
N2724       N  0.72759741  0.74280284  0.91409027    -0.56000
N2725       N  0.69408837  0.67081912  0.99886119    -0.35400
N2726       N  0.72604590  0.74276327  0.58400128    -0.56000
C2727       C  0.77376422  0.84459786  0.96575895     0.28200
C2728       C  0.77297818  0.84455759  0.53277484     0.28200
C2729       C  0.68845129  0.64536791  0.96469820     0.28200
C2730       C  0.68775606  0.64537361  0.53317270     0.28200
C2731       C  0.76412603  0.78363451  0.92152812     0.36800
C2732       C  0.73797881  0.71094430  0.92517916     0.36800
C2733       C  0.76271356  0.78364717  0.57729094     0.36800
C2734       C  0.73664242  0.71097868  0.57332672     0.36800
C2735       C  0.78176783  0.88655514  0.97767213    -0.20700
C2736       C  0.78126229  0.88652387  0.52065233    -0.20700
C2737       C  0.67134536  0.60144327  0.97738490    -0.20700
C2738       C  0.67084009  0.60142795  0.52050726    -0.20700
C2739       C  0.79529350  0.77666228  0.94063636    -0.21800
C2740       C  0.77750485  0.73169140  0.94560165    -0.21800
C2741       C  0.79421481  0.77677737  0.55901349    -0.21800
C2742       C  0.77646516  0.73184846  0.55375430    -0.21800
C2743       C  0.76614707  0.82604740  0.92607365    -0.17100
C2744       C  0.76480608  0.82606402  0.57245880    -0.17100
C2745       C  0.70869844  0.66311038  0.57237264    -0.17100
C2746       C  0.70989117  0.66310044  0.92584507    -0.17100
H2747       H  0.78569667  0.91364980  0.95809556     0.15800
H2748       H  0.78482782  0.91358621  0.54007276     0.15800
H2749       H  0.66532177  0.57337084  0.95804530     0.15800
H2750       H  0.66433785  0.57332719  0.54001888     0.15800
H2751       H  0.82582552  0.80189776  0.95413615     0.14100
H2752       H  0.79191370  0.71565243  0.96296120     0.14100
H2753       H  0.82494952  0.80207638  0.54608935     0.14100
H2754       H  0.79100396  0.71592484  0.53653514     0.14100
H2755       H  0.75271323  0.78503096  0.99925889     0.27300
H2756       H  0.70781330  0.70535006  0.99884374     0.27300
N2757       N  0.97365196  0.79701546  0.99960288    -0.35400
N2758       N  0.51960628  0.77651523  0.91601189    -0.56000
N2759       N  0.56224772  0.74633083  0.99935589    -0.35400
N2760       N  0.52009156  0.77779052  0.58263494    -0.56000
C2761       C  0.95509832  0.80351738  0.96521729     0.28200
C2762       C  0.95538264  0.80414629  0.53379360     0.28200
C2763       C  0.58454652  0.74633119  0.96518969     0.28200
C2764       C  0.58467119  0.74686835  0.53371778     0.28200
C2765       C  0.97556330  0.75900853  0.92256116     0.36800
C2766       C  0.52815460  0.74191064  0.91777099     0.36800
C2767       C  0.97587811  0.76007962  0.57695908     0.36800
C2768       C  0.52858052  0.74317616  0.58093993     0.36800
C2769       C  0.92884060  0.82039720  0.97771771    -0.20700
C2770       C  0.92902143  0.82079624  0.52081813    -0.20700
C2771       C  0.62280472  0.74811907  0.97796584    -0.20700
C2772       C  0.62288674  0.74846038  0.52130561    -0.20700
C2773       C  0.95851012  0.71547640  0.93540019    -0.21800
C2774       C  0.49059468  0.70435990  0.93130764    -0.21800
C2775       C  0.95848405  0.71623962  0.56483955    -0.21800
C2776       C  0.49075016  0.70530604  0.56832853    -0.21800
C2777       C  0.95204650  0.78316768  0.92570411    -0.17100
C2778       C  0.95237378  0.78419528  0.57350581    -0.17100
C2779       C  0.57071094  0.74702664  0.57525004    -0.17100
C2780       C  0.57042664  0.74589007  0.92351150    -0.17100
H2781       H  0.90735447  0.82619962  0.95811395     0.15800
H2782       H  0.90760893  0.82681451  0.54015426     0.15800
H2783       H  0.64814269  0.74937096  0.95837218     0.15800
H2784       H  0.64832156  0.75001828  0.54113298     0.15800
H2785       H  0.92747519  0.69533290  0.95037737     0.14100
H2786       H  0.48808023  0.67340809  0.94137489     0.14100
H2787       H  0.92708464  0.69576344  0.55045384     0.14100
H2788       H  0.48801203  0.67415842  0.55861711     0.14100
H2789       H  0.99251984  0.78178552  0.99976872     0.27300
H2790       H  0.53327883  0.74700931  0.99927231     0.27300
N2791       N  0.89183966  0.60644709  0.62752794    -0.02300
C2792       C  0.90505111  0.64863837  0.64072932     0.00300
C2793       C  0.88219025  0.66320011  0.61975516    -0.22600
C2794       C  0.85937459  0.63288669  0.58822636    -0.22800
C2795       C  0.86072537  0.59449492  0.59676059     0.00200
H2796       H  0.88336253  0.69281736  0.62909597     0.14000
H2797       H  0.84108199  0.63721835  0.56354847     0.14000
N2798       N  0.60113667  0.88465297  0.61649586    -0.02300
C2799       C  0.58979356  0.86463981  0.65537950     0.00300
C2800       C  0.62724257  0.88044249  0.67850237    -0.22600
C2801       C  0.66099820  0.90886567  0.65350718    -0.22800
C2802       C  0.64600743  0.90869590  0.61402843     0.00200
H2803       H  0.62990448  0.87241256  0.71054958     0.14000
H2804       H  0.69323561  0.92386406  0.66369760     0.14000
O2805       O  0.98204079  0.54957361  0.59310325    -0.87200
C2806       C  0.56365195  0.56316955  0.68692140     0.88900
Mg2807     Mg  0.91439497  0.50287374  0.59946904     1.58100
O2808       O  0.56458039  0.51479194  0.59209047    -0.86900
O2809       O  0.53682323  0.57740451  0.55011467    -0.74200
C2810       C  0.91430866  0.82340755  0.64412319     0.93900
O2811       O  0.96119148  0.54026731  0.69264898    -0.74000
O2812       O  0.88983868  0.83985162  0.64986806    -0.81500
Mg2813     Mg  0.50694669  0.59328864  0.64545961     1.58000
C2814       C  0.57596463  0.90245123  0.60004973     0.93800
O2815       O  0.55335081  0.65188417  0.60301132    -0.79800
H2816       H  0.57512274  0.51986210  0.53151673    -0.05100
C2817       C  0.00522409  0.93621540  0.68660737     0.88800
O2818       O  0.91861116  0.95395018  0.55549292    -0.74300
O2819       O  0.55042616  0.56781020  0.65167581    -0.87100
O2820       O  0.59320345  0.94445609  0.59638562    -0.79900
C2821       C  0.66691029  0.58174490  0.63676190     0.94000
C2822       C  0.59463458  0.67445500  0.60631972     0.93800
Mg2823     Mg  0.98931370  0.90170028  0.59736270     1.58000
O2824       O  0.95493618  0.84753172  0.64331224    -0.79800
O2825       O  0.53034444  0.95726485  0.55045579    -0.74000
O2826       O  0.64272428  0.59797826  0.64052386    -0.79900
O2827       O  0.95942122  0.61367341  0.63370651    -0.81600
O2828       O  0.84554835  0.89375641  0.62221987    -0.79900
C2829       C  0.55749216  0.99830502  0.55684358     0.88300
O2830       O  0.94311294  0.92247245  0.59756003    -0.87100
O2831       O  0.51849100  0.94332981  0.65034868    -0.87200
O2832       O  0.96624100  0.92439024  0.69540312    -0.74200
Mg2833     Mg  0.59035808  0.58427670  0.59563599     1.58000
O2834       O  0.65171587  0.54016800  0.63340932    -0.81600
H2835       H  0.97542745  0.56281745  0.53409092    -0.05300
O2836       O  0.92980139  0.97979519  0.65500525    -0.86900
H2837       H  0.91537940  0.97969495  0.71499369    -0.05100
H2838       H  0.92746005  0.90298548  0.53833691    -0.05300
C2839       C  0.93453654  0.49881345  0.68867411     0.88200
C2840       C  0.49686842  0.56309687  0.55800673     0.88800
C2841       C  0.92915027  0.92487137  0.56300681     0.88900
H2842       H  0.52772497  0.94220215  0.71159743    -0.05300
O2843       O  0.57677566  0.53542938  0.69176705    -0.74300
Mg2844     Mg  0.90881899  0.91123440  0.65483880     1.58000
H2845       H  0.56327781  0.58249450  0.71305534    -0.05300
C2846       C  0.91858943  0.58793931  0.63308824     0.93800
O2847       O  0.84491602  0.95634061  0.60961214    -0.81600
C2848       C  0.82552377  0.91506464  0.61659191     0.93900
O2849       O  0.61731204  0.65614249  0.60325459    -0.81500
Mg2850     Mg  0.58352158  0.98946541  0.64275188     1.58200
O2851       O  0.90133526  0.54668655  0.63788725    -0.79900
O2852       O  0.53536870  0.87748549  0.59816076    -0.81600
N2853       N  0.77956960  0.89167612  0.61911111    -0.02300
C2854       C  0.75501391  0.90384235  0.64237155     0.00300
C2855       C  0.71366017  0.86668372  0.64273560    -0.22600
C2856       C  0.71208493  0.83589650  0.61467933    -0.22800
C2857       C  0.75348037  0.84964930  0.60418738     0.00200
H2858       H  0.68896722  0.85918803  0.66542674     0.14000
H2859       H  0.68499271  0.80547506  0.60358802     0.14000
N2860       N  0.61503429  0.71955735  0.61960365    -0.02300
C2861       C  0.59845593  0.74718518  0.61220358     0.00300
C2862       C  0.61508804  0.77962569  0.64204178    -0.22600
C2863       C  0.64013537  0.77094914  0.66958304    -0.22800
C2864       C  0.64269353  0.73549185  0.65366827     0.00200
H2865       H  0.61100634  0.80786283  0.64230406     0.14000
H2866       H  0.65656747  0.78992846  0.69719326     0.14000
N2867       N  0.71164349  0.61066583  0.63084236    -0.02300
C2868       C  0.73931078  0.59524994  0.63996075     0.00300
C2869       C  0.76685716  0.60617938  0.60810337    -0.22600
C2870       C  0.75698029  0.62772046  0.57767714    -0.22800
C2871       C  0.72549085  0.63498404  0.59451942     0.00200
H2872       H  0.78803949  0.59381354  0.60745782     0.14000
H2873       H  0.77302950  0.63942722  0.54794583     0.14000
N2874       N  0.89522374  0.77844289  0.63140415    -0.02300
C2875       C  0.90718520  0.76571551  0.59495624     0.00300
C2876       C  0.86931347  0.73274729  0.57665840    -0.22600
C2877       C  0.83630001  0.72227380  0.60507510    -0.22800
C2878       C  0.85153307  0.75036328  0.63758539     0.00200
H2879       H  0.86646790  0.71609348  0.54735232     0.14000
H2880       H  0.80383842  0.69738277  0.60395274     0.14000
N2881       N  0.89265862  0.60588290  0.87241573    -0.02300
C2882       C  0.86174662  0.59365875  0.90325044     0.00300
C2883       C  0.86021444  0.63183877  0.91216299    -0.22600
C2884       C  0.88242165  0.66214385  0.88060423    -0.22800
C2885       C  0.90541104  0.64801071  0.85941574     0.00200
H2886       H  0.84175232  0.63581929  0.93675867     0.14000
H2887       H  0.88268765  0.69121691  0.87105364     0.14000
N2888       N  0.60170066  0.88396593  0.88197698    -0.02300
C2889       C  0.64656999  0.90777657  0.88436728     0.00300
C2890       C  0.66119220  0.90796849  0.84480682    -0.22600
C2891       C  0.62712676  0.87958259  0.81985710    -0.22800
C2892       C  0.58990492  0.86400571  0.84308466     0.00200
H2893       H  0.69336268  0.92309663  0.83448408     0.14000
H2894       H  0.62940627  0.87156210  0.78773846     0.14000
O2895       O  0.51780068  0.94404340  0.84866947    -0.87200
C2896       C  0.93065342  0.92517399  0.93746600     0.88900
Mg2897     Mg  0.58522572  0.98962097  0.85551982     1.58100
O2898       O  0.93046922  0.97950346  0.84506834    -0.86900
O2899       O  0.96506131  0.92315851  0.80287324    -0.74200
C2900       C  0.59547086  0.67396072  0.89211329     0.93900
O2901       O  0.53329814  0.95765404  0.94925606    -0.74000
O2902       O  0.61834320  0.65577791  0.89435866    -0.81500
Mg2903     Mg  0.99017258  0.90111174  0.90344004     1.58000
C2904       C  0.91958065  0.58765605  0.86653050     0.93800
O2905       O  0.95525265  0.84713718  0.85732898    -0.79800
H2906       H  0.91474503  0.97859069  0.78525427    -0.05100
C2907       C  0.49894422  0.56280377  0.94155501     0.88800
O2908       O  0.57787674  0.53537568  0.80679455    -0.74300
O2909       O  0.94433149  0.92237491  0.90298756    -0.87100
O2910       O  0.90248528  0.54646530  0.86150003    -0.79900
C2911       C  0.82656228  0.91517542  0.88296377     0.94000
C2912       C  0.91463117  0.82319873  0.85569903     0.93800
Mg2913     Mg  0.50750022  0.59253534  0.85387378     1.58000
O2914       O  0.55433570  0.65120739  0.89616409    -0.79800
O2915       O  0.96104905  0.53944685  0.80693163    -0.74000
O2916       O  0.84687524  0.89394728  0.87916428    -0.79900
O2917       O  0.53643540  0.87704553  0.90163277    -0.81600
O2918       O  0.64342730  0.59705341  0.85729049    -0.79900
C2919       C  0.93447496  0.49806070  0.81131119     0.88300
O2920       O  0.55043694  0.56620383  0.84729623    -0.87100
O2921       O  0.98323445  0.54933943  0.90661279    -0.87200
O2922       O  0.53909048  0.57708639  0.94876653    -0.74200
Mg2923     Mg  0.90922899  0.91101236  0.84544388     1.58000
O2924       O  0.84574396  0.95654652  0.88949855    -0.81600
H2925       H  0.52652397  0.94083094  0.78677672    -0.05300
O2926       O  0.56680143  0.51454346  0.90681741    -0.86900
H2927       H  0.58091607  0.51980843  0.96681347    -0.05100
H2928       H  0.56276086  0.58150403  0.78601492    -0.05300
C2929       C  0.56115883  0.99837283  0.94207929     0.88200
C2930       C  0.00416018  0.93536163  0.81160113     0.88800
C2931       C  0.56376574  0.56225436  0.81193873     0.88900
H2932       H  0.97813870  0.56250468  0.96598816    -0.05300
O2933       O  0.91980360  0.95408947  0.94457998    -0.74300
Mg2934     Mg  0.59188674  0.58389670  0.90266164     1.58000
H2935       H  0.92930306  0.90365424  0.96236325    -0.05300
C2936       C  0.57696457  0.90203188  0.89867442     0.93800
O2937       O  0.65318651  0.53975358  0.86503918    -0.81600
C2938       C  0.66794356  0.58124365  0.86159165     0.93900
O2939       O  0.89025268  0.83982471  0.85023931    -0.81500
Mg2940     Mg  0.91538639  0.50284773  0.90034912     1.58200
O2941       O  0.59439950  0.94410825  0.90197764    -0.79900
O2942       O  0.96039303  0.61351509  0.86580920    -0.81600
N2943       N  0.71258982  0.61049990  0.86759506    -0.02300
C2944       C  0.74033685  0.59531905  0.85835450     0.00300
C2945       C  0.76831048  0.60655081  0.89006881    -0.22600
C2946       C  0.75853122  0.62803043  0.92060117    -0.22800
C2947       C  0.72654995  0.63481556  0.90394869     0.00200
H2948       H  0.78958295  0.59425788  0.89056973     0.14000
H2949       H  0.77490650  0.63997522  0.95025697     0.14000
N2950       N  0.61530042  0.71905790  0.87895183    -0.02300
C2951       C  0.59852724  0.74650536  0.88668767     0.00300
C2952       C  0.61517335  0.77926776  0.85722923    -0.22200
C2953       C  0.64006025  0.77080463  0.82944588    -0.22800
C2954       C  0.64285224  0.73532449  0.84496280     0.00200
H2955       H  0.61101048  0.80745470  0.85727062     0.14000
H2956       H  0.65623614  0.78992465  0.80192140     0.14000
N2957       N  0.78060372  0.89145499  0.87952449    -0.02300
C2958       C  0.75582816  0.90356552  0.85634726     0.00300
C2959       C  0.71449845  0.86637122  0.85586558    -0.22600
C2960       C  0.71317018  0.83553377  0.88369567    -0.22800
C2961       C  0.75466293  0.84934228  0.89415184     0.00200
H2962       H  0.68963755  0.85885141  0.83320917     0.14000
H2963       H  0.68613678  0.80512237  0.89476149     0.14000
N2964       N  0.89540839  0.77797360  0.86726663    -0.02300
C2965       C  0.90694947  0.76480970  0.90375516     0.00300
C2966       C  0.86875789  0.73212836  0.92163904    -0.22600
C2967       C  0.83601463  0.72209524  0.89273581    -0.22800
C2968       C  0.85174465  0.75021390  0.86042614     0.00200
H2969       H  0.86550824  0.71536446  0.95095873     0.14000
H2970       H  0.80329447  0.69782149  0.89344432     0.14000
N2971       N  0.73004038  0.54867311  0.74916962    -0.35400
N2972       N  0.74395692  0.99513377  0.83431273    -0.56000
N2973       N  0.77652779  0.95309214  0.74949114    -0.35400
N2974       N  0.74387882  0.99568214  0.66401804    -0.56000
C2975       C  0.72576568  0.56898050  0.78329486     0.28200
C2976       C  0.72557638  0.56911476  0.71516693     0.28200
C2977       C  0.77880886  0.93140624  0.78333232     0.28200
C2978       C  0.77859889  0.93150964  0.71549597     0.28200
C2979       C  0.76125115  0.53984617  0.82825320     0.36800
C2980       C  0.77664154  0.98509798  0.83053280     0.36800
C2981       C  0.76108435  0.54036836  0.67025482     0.36800
C2982       C  0.77640660  0.98551624  0.66864099     0.36800
C2983       C  0.71599484  0.60127661  0.77078087    -0.20700
C2984       C  0.71586682  0.60134881  0.72784998    -0.20700
C2985       C  0.78398605  0.89619613  0.77084398    -0.20700
C2986       C  0.78381376  0.89622905  0.72774396    -0.20700
C2987       C  0.80420200  0.55780128  0.81657798    -0.21800
C2988       C  0.81339067  0.02344091  0.81781805    -0.21800
C2989       C  0.80381020  0.55816011  0.68302533    -0.21800
C2990       C  0.81296964  0.02375761  0.68211830    -0.21800
C2991       C  0.73704066  0.56287841  0.82415637    -0.17100
C2992       C  0.73661446  0.56312562  0.67427720    -0.17100
C2993       C  0.77146587  0.94163358  0.67472617    -0.17100
C2994       C  0.77190429  0.94137145  0.82417848    -0.17100
H2995       H  0.71310163  0.62526381  0.78985377     0.15800
H2996       H  0.71286937  0.62537604  0.70888939     0.15800
H2997       H  0.78797429  0.87341570  0.79060639     0.15800
H2998       H  0.78759543  0.87343356  0.70783662     0.15800
H2999       H  0.82545430  0.59151411  0.80601400     0.14100
H3000       H  0.84248531  0.02427860  0.80726850     0.14100
H3001       H  0.82486975  0.59173227  0.69417230     0.14100
H3002       H  0.84185135  0.02449544  0.69342670     0.14100
H3003       H  0.73844735  0.52389975  0.74910591     0.27300
H3004       H  0.76903295  0.97850786  0.74959764     0.27300
N3005       N  0.82959933  0.52585020  0.49994040    -0.35400
N3006       N  0.75846210  0.98071448  0.91578943    -0.56000
N3007       N  0.68580503  0.93293497  0.99929127    -0.35400
N3008       N  0.75751198  0.98201569  0.58341121    -0.56000
C3009       C  0.85371551  0.54696731  0.96597592     0.28200
C3010       C  0.85326034  0.54761267  0.53414941     0.28200
C3011       C  0.66177555  0.91343280  0.96464197     0.28200
C3012       C  0.66139268  0.91389383  0.53378961     0.28200
C3013       C  0.78722638  0.52460825  0.92638459     0.36800
C3014       C  0.71646548  0.97298331  0.92086137     0.36800
C3015       C  0.78631023  0.52562943  0.57225220     0.36800
C3016       C  0.71554632  0.97412013  0.57749069     0.36800
C3017       C  0.89587076  0.57731346  0.97885400    -0.20700
C3018       C  0.89556519  0.57775094  0.52183744    -0.20700
C3019       C  0.62210238  0.87768659  0.97731248    -0.20700
C3020       C  0.62185874  0.87798933  0.52089729    -0.20700
C3021       C  0.76335144  0.54031529  0.94650740    -0.21800
C3022       C  0.71967214  0.00993810  0.94075814    -0.21800
C3023       C  0.76257419  0.54089142  0.55094019    -0.21800
C3024       C  0.71884502  0.01060543  0.55648894    -0.21800
C3025       C  0.83503497  0.54838737  0.92700507    -0.17100
C3026       C  0.83409886  0.54939863  0.57253443    -0.17100
C3027       C  0.67557761  0.93101575  0.57519211    -0.17100
C3028       C  0.67635728  0.93001893  0.92323270    -0.17100
H3029       H  0.92246206  0.60090106  0.95960433     0.15800
H3030       H  0.92187932  0.60172851  0.54126377     0.15800
H3031       H  0.59571513  0.85407464  0.95777885     0.15800
H3032       H  0.59524463  0.85475114  0.54027751     0.15800
H3033       H  0.77653383  0.57127110  0.96341945     0.14100
H3034       H  0.69299399  0.01278578  0.95355035     0.14100
H3035       H  0.77585993  0.57167589  0.53376534     0.14100
H3036       H  0.69220906  0.01314918  0.54295059     0.14100
H3037       H  0.79646412  0.50214364  0.49972902     0.27300
H3038       H  0.71839558  0.95801885  0.99940235     0.27300
N3039       N  0.67682074  0.70268189  0.74917235    -0.35400
N3040       N  0.74124791  0.71905019  0.67007244    -0.56000
N3041       N  0.81370213  0.74977554  0.74892342    -0.35400
N3042       N  0.74176277  0.71957679  0.82815954    -0.56000
C3043       C  0.65167347  0.69583423  0.71490535     0.28200
C3044       C  0.65181946  0.69601741  0.78335777     0.28200
C3045       C  0.83453905  0.74684569  0.71495482     0.28200
C3046       C  0.83482793  0.74722350  0.78297918     0.28200
C3047       C  0.71567445  0.73849986  0.67136184     0.36800
C3048       C  0.78402950  0.75283586  0.66671608     0.36800
C3049       C  0.71605938  0.73889735  0.82689765     0.36800
C3050       C  0.78456421  0.75346598  0.83110591     0.36800
C3051       C  0.60888420  0.67941537  0.72752079    -0.20700
C3052       C  0.60897598  0.67952560  0.77061843    -0.20700
C3053       C  0.86914480  0.74158769  0.72746743    -0.20700
C3054       C  0.86932815  0.74182571  0.77060935    -0.20700
C3055       C  0.74260810  0.78387467  0.67489329    -0.21800
C3056       C  0.78515737  0.79295352  0.67203719    -0.21800
C3057       C  0.74287670  0.78423807  0.82292552    -0.21800
C3058       C  0.78552554  0.79348310  0.82562023    -0.21800
C3059       C  0.66872369  0.71637635  0.67568429    -0.17100
C3060       C  0.66903273  0.71657660  0.82265287    -0.17100
C3061       C  0.82279873  0.74966884  0.82439345    -0.17100
C3062       C  0.82228136  0.74904970  0.67349475    -0.17100
H3063       H  0.58146626  0.67311930  0.70794669     0.15800
H3064       H  0.58163934  0.67330945  0.79008842     0.15800
H3065       H  0.89173044  0.73775721  0.70775413     0.15800
H3066       H  0.89208033  0.73820199  0.79042082     0.15800
H3067       H  0.73246770  0.80745266  0.68249719     0.14100
H3068       H  0.81391468  0.82522996  0.67649570     0.14100
H3069       H  0.73252569  0.80762914  0.81513220     0.14100
H3070       H  0.81421972  0.82577098  0.82104694     0.14100
H3071       H  0.71073226  0.71852263  0.74920097     0.27300
H3072       H  0.78675074  0.75419435  0.74887323     0.27300
loop_ 
_geom_bond_atom_site_label_1 
_geom_bond_atom_site_label_2 
_geom_bond_distance 
_geom_bond_site_symmetry_2 
_ccdc_geom_bond_type 
N1            C6   1.360       .  A
N1            C5   1.360       .  A
N1           H33   1.039       .  S
N2           C10   1.373       .  A
N2         C1545   1.375       .  A
N3            C8   1.342       .  A
N3            C7   1.341       .  A
N3           H34   1.042       .  S
N4           C12   1.374       .  A
N4         C1547   1.375       .  A
C5           C13   1.387       .  A
C5           C21   1.435       .  A
C6           C22   1.434       .  A
C6           C14   1.387       .  A
C7           C15   1.374       .  A
C7           C24   1.395       .  A
C8           C23   1.395       .  A
C8           C16   1.374       .  A
C9         N1538   1.375   1_455  A
C9           C21   1.437       .  A
C9           C17   1.378       .  A
C10          C24   1.436       .  A
C10          C18   1.387       .  A
C11        N1540   1.375   1_455  A
C11          C19   1.377       .  A
C11          C22   1.437       .  A
C12          C20   1.388       .  A
C12          C23   1.436       .  A
C13          C14   1.379       .  A
C13          H25   1.083       .  S
C14          H26   1.083       .  S
C15          C16   1.372       .  A
C15          H27   1.064       .  S
C16          H28   1.064       .  S
C17        C1554   1.370       .  A
C17          H29   1.082       .  S
C18        C1553   1.370       .  A
C18          H30   1.083       .  S
C19        C1556   1.370       .  A
C19          H31   1.082       .  S
C20        C1555   1.370       .  A
C20          H32   1.083       .  S
C21         C111   1.553       .  S
C22         C204   1.551       .  S
C23         C197   1.519       .  S
C24         C104   1.518       .  S
N35          C39   1.328       .  A
N35         C424   1.329       .  A
N35          H67   1.042       .  S
N36          C43   1.378       .  A
N36          C44   1.377       .  A
N37          C41   1.358       .  A
N37         C426   1.358       .  A
N37          H68   1.043       .  S
N38          C45   1.378       .  A
N38          C46   1.377       .  A
C39          C47   1.390       .  A
C39          C55   1.391       .  A
C40         N419   1.329   1_554  A
C40          C56   1.390       .  A
C40          C48   1.389       .  A
C41          C49   1.389       .  A
C41          C58   1.431       .  A
C42         N421   1.358   1_554  A
C42          C57   1.432       .  A
C42          C50   1.390       .  A
C43          C55   1.445       .  A
C43          C51   1.387       .  A
C44          C58   1.445       .  A
C44          C52   1.377       .  A
C45          C53   1.387       .  A
C45          C56   1.445       .  A
C46          C54   1.376       .  A
C46          C57   1.445       .  A
C47         C432   1.379       .  A
C47          H59   1.081       .  S
C48         C431   1.379   1_554  A
C48          H60   1.081       .  S
C49         C434   1.385       .  A
C49          H61   1.082       .  S
C50         C433   1.385   1_554  A
C50          H62   1.082       .  S
C51          C52   1.368       .  A
C51          H63   1.083       .  S
C52          H64   1.080       .  S
C53          C54   1.368       .  A
C53          H65   1.083       .  S
C54          H66   1.080       .  S
C55         C273   1.483       .  S
C56         C169   1.485       .  S
C57         C183   1.548       .  S
C58         C259   1.548       .  S
N69          C73   1.359       .  A
N69         C458   1.360       .  A
N69         H101   1.042       .  S
N70          C78   1.381       .  A
N70        C1613   1.380   1_455  A
N71          C75   1.355       .  A
N71         C460   1.353       .  A
N71         H102   1.040       .  S
N72          C80   1.380       .  A
N72        C1615   1.379   1_455  A
C73          C81   1.388       .  A
C73          C89   1.429       .  A
C74         N453   1.360   1_554  A
C74          C90   1.429       .  A
C74          C82   1.388       .  A
C75          C83   1.389       .  A
C75          C92   1.424       .  A
C76         N455   1.353   1_554  A
C76          C91   1.425       .  A
C76          C84   1.389       .  A
C77        N1606   1.380       .  A
C77          C89   1.455       .  A
C77          C85   1.379       .  A
C78          C92   1.447       .  A
C78          C86   1.386   1_455  A
C79        N1608   1.379       .  A
C79          C87   1.380       .  A
C79          C90   1.453       .  A
C80          C88   1.385   1_455  A
C80          C91   1.445       .  A
C81         C466   1.382       .  A
C81          H93   1.082       .  S
C82         C465   1.382   1_554  A
C82          H94   1.082       .  S
C83         C468   1.391       .  A
C83          H95   1.082       .  S
C84         C467   1.391   1_554  A
C84          H96   1.082       .  S
C85        C1622   1.381       .  A
C85          H97   1.078       .  S
C86        C1621   1.381       .  A
C86          H98   1.082       .  S
C87        C1624   1.380       .  A
C87          H99   1.078       .  S
C88        C1623   1.380       .  A
C88         H100   1.082       .  S
C89         C277   1.560       .  S
C90         C187   1.559       .  S
C91         C173   1.538       .  S
C92         C263   1.542       .  S
N103        C107   1.378       .  A
N103        C104   1.362       .  A
N103        C158   1.400       .  S
C104        C105   1.333       .  A
C105        C106   1.388       .  A
C105        H108   1.052       .  S
C106        C107   1.385       .  A
C106        H109   1.080       .  S
C107        C338   1.568       .  S
N110        C114   1.380       .  A
N110        C111   1.387       .  A
N110        C126   1.418       .  S
C111        C112   1.371       .  A
C112        C113   1.367       .  A
C112        H115   1.082       .  S
C113        C114   1.372       .  A
C113        H116   1.042       .  S
C114        C339   1.564       .  S
O117       Mg119   2.127       .  S
O117      Mg1661   2.134       .  S
O117       C1688   1.233       .  S
C118        H157   1.079       .  S
C118        O131   1.264       .  A
C118        O155   1.273       .  A
Mg119       O916   2.133   1_545  S
Mg119       O163   2.183       .  S
Mg119       O927   2.187   1_545  S
Mg119       O898   2.273   1_545  S
O120       Mg145   2.110       .  S
O120       Mg930   2.114   1_545  S
O120        C909   1.232   1_545  S
O121        C152   1.271   1_455  A
O121       Mg145   2.309       .  S
C122        N186   1.414       .  S
C122        O124   1.271       .  A
C122        O136   1.252       .  A
O123        C151   1.270   1_545  A
O123      Mg1661   2.308       .  S
O124       Mg156   2.223       .  S
Mg125      O1653   2.134   1_455  S
Mg125       O127   2.313       .  S
Mg125      O1659   2.308   1_455  S
Mg125      O1675   2.165   1_455  S
Mg125       O131   2.139       .  S
C126        O164   1.255       .  A
C126        O132   1.272       .  A
O127        C134   1.272       .  A
H128        C909   1.069   1_545  S
C129       H1690   1.074       .  S
C129       O1679   1.234       .  S
C129        O144   1.263       .  A
O130        C153   1.264       .  A
O130       Mg887   2.273       .  S
O131       Mg145   2.185       .  S
O132       Mg162   2.307       .  S
C133        N179   1.401       .  S
C133        O146   1.266       .  A
C133        O138   1.248       .  A
C134        N172   1.420       .  S
C134        O161   1.256       .  A
Mg135       O142   2.098       .  S
Mg135      O1679   2.131       .  S
Mg135       O136   2.214       .  S
Mg135      O1673   2.301       .  S
Mg135      O1700   2.183       .  S
O137        C141   1.272       .  A
O137      Mg1671   2.301   1_455  S
O138       Mg145   2.203       .  S
O139        C158   1.264       .  A
O139      Mg1661   2.165       .  S
O140        C160   1.270       .  A
O140       Mg156   2.264       .  S
C141        H896   1.069       .  S
C141        O888   1.232       .  S
O142       Mg156   2.133       .  S
O142        C153   1.233       .  S
O143       Mg162   2.059       .  S
O143      Mg1671   2.131   1_455  S
O143       C1665   1.234       .  S
O144       Mg156   2.260       .  S
Mg145       O161   2.191       .  S
O146       Mg930   2.181   1_545  S
H147       C1688   1.076       .  S
O148       Mg156   2.107       .  S
O148       Mg887   2.133       .  S
O148        C919   1.233       .  S
H149        C919   1.077       .  S
H150        C153   1.078       .  S
C151        H917   1.077       .  S
C151        O916   1.233       .  S
C152       H1683   1.076       .  S
C152       O1653   1.233       .  S
H154       C1665   1.074       .  S
O155       Mg930   2.335   1_545  S
C158        O163   1.252       .  A
O159        C160   1.260       .  A
O159       Mg887   2.187       .  S
C160        N165   1.413       .  S
Mg162       O888   2.115       .  S
Mg162       O914   2.181       .  S
Mg162       O923   2.336       .  S
O164      Mg1671   2.183   1_455  S
N165        C169   1.362       .  A
N165        C166   1.368       .  A
C166        C167   1.384       .  A
C166        C305   1.539       .  S
C167        C168   1.377       .  A
C167        H170   1.068       .  S
C168        C169   1.341       .  A
C168        H171   1.069       .  S
N172        C176   1.383       .  A
N172        C173   1.375       .  A
C173        C174   1.365       .  A
C174        C175   1.388       .  A
C174        H177   1.061       .  S
C175        C176   1.378       .  A
C175        H178   1.082       .  S
C176        C371   1.551       .  S
N179        C183   1.378       .  A
N179        C180   1.365       .  A
C180        C181   1.334       .  A
C180        C304   1.536       .  S
C181        C182   1.377       .  A
C181        H184   1.037       .  S
C182        C183   1.376       .  A
C182        H185   1.082       .  S
N186        C190   1.370       .  A
N186        C187   1.392       .  A
C187        C188   1.382       .  A
C188        C189   1.384       .  A
C188        H191   1.082       .  S
C189        C190   1.341       .  A
C189        H192   1.036       .  S
C190        C374   1.539       .  S
N193        C197   1.361       .  A
N193        C194   1.379       .  A
N193        C216   1.400       .  S
C194        C195   1.384       .  A
C194        C337   1.567       .  S
C195        C196   1.387       .  A
C195        H198   1.080       .  S
C196        C197   1.333       .  A
C196        H199   1.050       .  S
N200        C204   1.385       .  A
N200        C201   1.379       .  A
N200        C248   1.418       .  S
C201        C202   1.372       .  A
C201        C340   1.563       .  S
C202        C203   1.368       .  A
C202        H205   1.043       .  S
C203        C204   1.372       .  A
C203        H206   1.082       .  S
O207       C1778   1.261       .  A
O207       Mg209   2.114       .  S
O207      Mg1751   2.194   1_455  S
C208        H247   1.078       .  S
C208        O221   1.233       .  S
C208        O245   1.264       .  A
Mg209      O1006   2.116       .  S
Mg209       O253   2.311       .  S
Mg209      O1017   2.170       .  S
Mg209       O988   2.333       .  S
O210       Mg235   2.103       .  S
O210      Mg1020   2.129       .  S
O210        C999   1.233       .  S
O211        C242   1.261       .  A
O211       Mg235   2.269       .  S
C212        N262   1.421       .  S
C212        O214   1.256       .  A
C212        O226   1.271       .  A
O213        C241   1.275       .  A
O213      Mg1751   2.308   1_455  S
O214       Mg246   2.197       .  S
Mg215       O221   2.098       .  S
Mg215       O217   2.212       .  S
Mg215      O1749   2.308       .  S
Mg215      O1765   2.186       .  S
Mg215      O1743   2.194       .  S
C216        O254   1.264       .  A
C216        O222   1.252       .  A
O217        C224   1.252       .  A
H218        C999   1.077       .  S
C219       H1780   1.075       .  S
C219       O1769   1.234       .  S
C219        O234   1.272   1_655  A
O220        C243   1.273       .  A
O220       Mg977   2.333   1_545  S
O221       Mg235   2.147       .  S
O222       Mg252   2.180       .  S
C223        N269   1.414       .  S
C223        O236   1.260       .  A
C223        O228   1.270       .  A
C224        N276   1.412       .  S
C224        O251   1.271       .  A
Mg225      O1769   2.136   1_455  S
Mg225       O226   2.310       .  S
Mg225      O1763   2.306   1_455  S
Mg225      O1790   2.169   1_455  S
Mg225       O232   2.147       .  S
O227        C231   1.270   1_545  A
O227      Mg1761   2.306       .  S
O228       Mg235   2.262       .  S
O229        C248   1.256       .  A
O229      Mg1751   2.186   1_455  S
O230        C250   1.248       .  A
O230       Mg246   2.203       .  S
C231        H986   1.077       .  S
C231        O978   1.233       .  S
O232        C243   1.265       .  A
O232       Mg246   2.185       .  S
O233       Mg252   2.129       .  S
O233      Mg1761   2.136       .  S
O233       C1755   1.234       .  S
O234       Mg246   2.309       .  S
Mg235       O251   2.217       .  S
O236      Mg1020   2.192       .  S
H237       C1778   1.074       .  S
O238       Mg246   2.110       .  S
O238       Mg977   2.116   1_545  S
O238       C1009   1.234   1_545  S
H239       C1009   1.070   1_545  S
H240        C243   1.079       .  S
C241       H1007   1.070       .  S
C241       O1006   1.233       .  S
C242       H1773   1.074       .  S
C242       O1743   1.261       .  A
H244       C1755   1.075       .  S
O245      Mg1020   2.276       .  S
C248        O253   1.272       .  A
O249        C250   1.266       .  A
O249       Mg977   2.170   1_545  S
C250        N255   1.400       .  S
Mg252       O978   2.129   1_545  S
Mg252      O1004   2.192   1_545  S
Mg252      O1013   2.276   1_545  S
O254      Mg1761   2.169       .  S
N255        C259   1.377       .  A
N255        C256   1.364       .  A
C256        C257   1.334       .  A
C256        C303   1.535       .  S
C257        C258   1.379       .  A
C257        H260   1.038       .  S
C258        C259   1.377       .  A
C258        H261   1.082       .  S
N262        C266   1.384       .  A
N262        C263   1.377       .  A
C263        C264   1.365       .  A
C264        C265   1.389       .  A
C264        H267   1.061       .  S
C265        C266   1.378       .  A
C265        H268   1.082       .  S
C266        C372   1.554       .  S
N269        C273   1.362       .  A
N269        C270   1.368       .  A
C270        C271   1.384       .  A
C270        C306   1.538       .  S
C271        C272   1.377       .  A
C271        H274   1.068       .  S
C272        C273   1.341       .  A
C272        H275   1.070       .  S
N276        C280   1.369       .  A
N276        C277   1.390       .  A
C277        C278   1.383       .  A
C278        C279   1.385       .  A
C278        H281   1.082       .  S
C279        C280   1.340       .  A
C279        H282   1.037       .  S
C280        C373   1.538       .  S
N283        C288   1.353       .  A
N283        C287   1.353       .  A
N283        H315   1.043       .  S
N284        C292   1.375       .  A
N284       C1059   1.364       .  A
N285        C290   1.347       .  A
N285        C289   1.347       .  A
N285        H316   1.042       .  S
N286        C294   1.374       .  A
N286       C1061   1.363       .  A
C287        C295   1.389       .  A
C287        C303   1.417       .  A
C288        C304   1.416       .  A
C288        C296   1.388       .  A
C289        C297   1.384       .  A
C289        C306   1.409       .  A
C290        C305   1.410       .  A
C290        C298   1.385       .  A
C291       N1052   1.364   1_545  A
C291        C303   1.444       .  A
C291        C299   1.379       .  A
C292        C306   1.456       .  A
C292        C300   1.377       .  A
C293       N1054   1.363   1_545  A
C293        C301   1.380       .  A
C293        C304   1.445       .  A
C294        C302   1.378       .  A
C294        C305   1.457       .  A
C295        C296   1.378       .  A
C295        H307   1.080       .  S
C296        H308   1.080       .  S
C297        C298   1.383       .  A
C297        H309   1.077       .  S
C298        H310   1.077       .  S
C299       C1068   1.388       .  A
C299        H311   1.080       .  S
C300       C1067   1.388       .  A
C300        H312   1.074       .  S
C301       C1070   1.388       .  A
C301        H313   1.081       .  S
C302       C1069   1.388       .  A
C302        H314   1.075       .  S
N317        C322   1.356   1_556  A
N317        C705   1.356       .  A
N317        H349   1.043       .  S
N318        C326   1.386       .  A
N318       C1093   1.383       .  A
N319        C323   1.355       .  A
N319        C708   1.356       .  A
N319        H350   1.041       .  S
N320        C328   1.385       .  A
N320       C1095   1.382       .  A
C321        N701   1.356       .  A
C321        C329   1.390       .  A
C321        C337   1.426       .  A
C322        C338   1.426       .  A
C322        C330   1.389       .  A
C323        C331   1.391       .  A
C323        C340   1.439       .  A
C324        N703   1.356   1_554  A
C324        C339   1.438       .  A
C324        C332   1.390       .  A
C325       N1086   1.383   1_545  A
C325        C337   1.467       .  A
C325        C333   1.379       .  A
C326        C340   1.457       .  A
C326        C334   1.386       .  A
C327       N1088   1.382   1_545  A
C327        C335   1.380       .  A
C327        C338   1.467       .  A
C328        C336   1.387       .  A
C328        C339   1.457       .  A
C329        C714   1.383       .  A
C329        H341   1.081       .  S
C330        C713   1.383   1_554  A
C330        H342   1.081       .  S
C331        C716   1.398       .  A
C331        H343   1.080       .  S
C332        C715   1.398   1_554  A
C332        H344   1.080       .  S
C333       C1102   1.379       .  A
C333        H345   1.078       .  S
C334       C1101   1.379       .  A
C334        H346   1.083       .  S
C335       C1104   1.379       .  A
C335        H347   1.078       .  S
C336       C1103   1.379       .  A
C336        H348   1.083       .  S
N351        C356   1.358       .  A
N351        C355   1.358       .  A
N351        H383   1.042       .  S
N352        C359   1.378       .  A
N352        C360   1.380       .  A
N353        C358   1.352       .  A
N353        C357   1.352       .  A
N353        H384   1.042       .  S
N354        C361   1.378       .  A
N354        C362   1.380       .  A
C355        C363   1.389       .  A
C355        C371   1.425       .  A
C356        C372   1.425       .  A
C356        C364   1.389       .  A
C357        C365   1.388       .  A
C357        C374   1.413       .  A
C358        C373   1.413       .  A
C358        C366   1.388       .  A
C359        C371   1.449       .  A
C359        C367   1.376       .  A
C360        C374   1.444       .  A
C360        C368   1.384       .  A
C361        C369   1.376       .  A
C361        C372   1.450       .  A
C362        C370   1.384       .  A
C362        C373   1.445       .  A
C363        C364   1.383       .  A
C363        H375   1.083       .  S
C364        H376   1.083       .  S
C365        C366   1.385       .  A
C365        H377   1.082       .  S
C366        H378   1.082       .  S
C367        C368   1.383       .  A
C367        H379   1.076       .  S
C368        H380   1.080       .  S
C369        C370   1.383       .  A
C369        H381   1.076       .  S
C370        H382   1.081       .  S
N385        C390   1.360       .  A
N385        C389   1.360       .  A
N385        H417   1.039       .  S
N386       C1929   1.375       .  A
N386        C394   1.373       .  A
N387        C392   1.342       .  A
N387        C391   1.341       .  A
N387        H418   1.042       .  S
N388       C1931   1.375       .  A
N388        C396   1.374       .  A
C389        C397   1.387       .  A
C389        C405   1.435       .  A
C390        C406   1.434       .  A
C390        C398   1.387       .  A
C391        C399   1.374       .  A
C391        C408   1.395       .  A
C392        C407   1.395       .  A
C392        C400   1.374       .  A
C393       N1922   1.375   1_455  A
C393        C405   1.437       .  A
C393        C401   1.378       .  A
C394        C408   1.436       .  A
C394        C402   1.387       .  A
C395       N1924   1.375   1_455  A
C395        C403   1.377       .  A
C395        C406   1.437       .  A
C396        C404   1.388       .  A
C396        C407   1.436       .  A
C397        C398   1.379       .  A
C397        H409   1.083       .  S
C398        H410   1.083       .  S
C399        C400   1.372       .  A
C399        H411   1.064       .  S
C400        H412   1.063       .  S
C401       C1938   1.370       .  A
C401        H413   1.082       .  S
C402       C1937   1.370       .  A
C402        H414   1.083       .  S
C403       C1940   1.370       .  A
C403        H415   1.082       .  S
C404       C1939   1.370       .  A
C404        H416   1.083       .  S
C405        C495   1.553       .  S
C406        C588   1.551       .  S
C407        C581   1.519       .  S
C408        C488   1.518       .  S
N419        C423   1.328       .  A
N419        H451   1.042       .  S
N420        C427   1.378       .  A
N420        C428   1.377       .  A
N421        C425   1.358       .  A
N421        H452   1.043       .  S
N422        C429   1.378       .  A
N422        C430   1.377       .  A
C423        C431   1.390       .  A
C423        C439   1.391       .  A
C424        C440   1.390       .  A
C424        C432   1.389       .  A
C425        C433   1.389       .  A
C425        C442   1.431       .  A
C426        C441   1.431       .  A
C426        C434   1.390       .  A
C427        C439   1.445       .  A
C427        C435   1.387       .  A
C428        C442   1.445       .  A
C428        C436   1.377       .  A
C429        C437   1.387       .  A
C429        C440   1.445       .  A
C430        C438   1.376       .  A
C430        C441   1.445       .  A
C431        H443   1.081       .  S
C432        H444   1.081       .  S
C433        H445   1.082       .  S
C434        H446   1.082       .  S
C435        C436   1.368       .  A
C435        H447   1.083       .  S
C436        H448   1.080       .  S
C437        C438   1.368       .  A
C437        H449   1.083       .  S
C438        H450   1.080       .  S
C439        C657   1.483       .  S
C440        C553   1.485       .  S
C441        C567   1.548       .  S
C442        C643   1.548       .  S
N453        C457   1.359       .  A
N453        H485   1.042       .  S
N454       C1997   1.380   1_455  A
N454        C462   1.381       .  A
N455        C459   1.355       .  A
N455        H486   1.040       .  S
N456       C1999   1.379   1_455  A
N456        C464   1.380       .  A
C457        C465   1.388       .  A
C457        C473   1.429       .  A
C458        C474   1.429       .  A
C458        C466   1.388       .  A
C459        C467   1.389       .  A
C459        C476   1.424       .  A
C460        C475   1.425       .  A
C460        C468   1.389       .  A
C461       N1990   1.380       .  A
C461        C473   1.455       .  A
C461        C469   1.379       .  A
C462        C476   1.447       .  A
C462        C470   1.386   1_455  A
C463       N1992   1.379       .  A
C463        C471   1.380       .  A
C463        C474   1.453       .  A
C464        C472   1.385   1_455  A
C464        C475   1.445       .  A
C465        H477   1.082       .  S
C466        H478   1.082       .  S
C467        H479   1.082       .  S
C468        H480   1.082       .  S
C469       C2006   1.381       .  A
C469        H481   1.078       .  S
C470       C2005   1.381       .  A
C470        H482   1.082       .  S
C471       C2008   1.380       .  A
C471        H483   1.078       .  S
C472       C2007   1.380       .  A
C472        H484   1.082       .  S
C473        C661   1.560       .  S
C474        C571   1.559       .  S
C475        C557   1.538       .  S
C476        C647   1.542       .  S
N487        C491   1.378       .  A
N487        C488   1.362       .  A
N487        C542   1.400       .  S
C488        C489   1.333       .  A
C489        C490   1.388       .  A
C489        H492   1.052       .  S
C490        C491   1.385       .  A
C490        H493   1.080       .  S
C491        C722   1.568       .  S
N494        C498   1.380       .  A
N494        C495   1.387       .  A
N494        C510   1.418       .  S
C495        C496   1.371       .  A
C496        C497   1.367       .  A
C496        H499   1.082       .  S
C497        C498   1.372       .  A
C497        H500   1.042       .  S
C498        C723   1.564       .  S
O501       Mg503   2.127       .  S
O501      Mg2045   2.134       .  S
O501       C2072   1.233       .  S
C502        H541   1.079       .  S
C502        O515   1.264       .  A
C502        O539   1.273       .  A
Mg503      O1300   2.133   1_545  S
Mg503       O547   2.183       .  S
Mg503      O1311   2.187   1_545  S
Mg503      O1282   2.273   1_545  S
O504      Mg1314   2.115   1_545  S
O504       Mg529   2.110       .  S
O504       C1293   1.232   1_545  S
O505        C536   1.271   1_455  A
O505       Mg529   2.309       .  S
C506        N570   1.414       .  S
C506        O508   1.271       .  A
C506        O520   1.252       .  A
O507        C535   1.270   1_545  A
O507      Mg2045   2.308       .  S
O508       Mg540   2.223       .  S
Mg509      O2037   2.134   1_455  S
Mg509      O2043   2.308   1_455  S
Mg509      O2059   2.165   1_455  S
Mg509       O511   2.313       .  S
Mg509       O515   2.139       .  S
C510        O548   1.255       .  A
C510        O516   1.272       .  A
O511        C518   1.272       .  A
H512       C1293   1.069   1_545  S
C513       H2074   1.074       .  S
C513       O2063   1.234       .  S
C513        O528   1.263       .  A
O514        C537   1.264       .  A
O514      Mg1271   2.273       .  S
O515       Mg529   2.185       .  S
O516       Mg546   2.307       .  S
C517        N563   1.401       .  S
C517        O530   1.266       .  A
C517        O522   1.248       .  A
C518        N556   1.420       .  S
C518        O545   1.256       .  A
Mg519       O526   2.098       .  S
Mg519      O2063   2.131       .  S
Mg519       O520   2.214       .  S
Mg519      O2057   2.301       .  S
Mg519      O2084   2.182       .  S
O521        C525   1.272       .  A
O521      Mg2055   2.301   1_455  S
O522       Mg529   2.202       .  S
O523        C542   1.264       .  A
O523      Mg2045   2.165       .  S
O524        C544   1.270       .  A
O524       Mg540   2.264       .  S
C525       H1280   1.069       .  S
C525       O1272   1.232       .  S
O526       Mg540   2.133       .  S
O526        C537   1.233       .  S
O527      Mg2055   2.131   1_455  S
O527       Mg546   2.059       .  S
O527       C2049   1.234       .  S
O528       Mg540   2.260       .  S
Mg529       O545   2.191       .  S
O530      Mg1314   2.181   1_545  S
H531       C2072   1.076       .  S
O532      Mg1271   2.133       .  S
O532       Mg540   2.107       .  S
O532       C1303   1.233       .  S
H533       C1303   1.077       .  S
H534        C537   1.078       .  S
C535       H1301   1.077       .  S
C535       O1300   1.233       .  S
C536       H2067   1.076       .  S
C536       O2037   1.233       .  S
H538       C2049   1.074       .  S
O539      Mg1314   2.336   1_545  S
C542        O547   1.253       .  A
O543        C544   1.260       .  A
O543      Mg1271   2.187       .  S
C544        N549   1.413       .  S
Mg546      O1272   2.114       .  S
Mg546      O1298   2.181       .  S
Mg546      O1307   2.335       .  S
O548      Mg2055   2.182   1_455  S
N549        C553   1.362       .  A
N549        C550   1.368       .  A
C550        C551   1.384       .  A
C550        C689   1.539       .  S
C551        C552   1.377       .  A
C551        H554   1.068       .  S
C552        C553   1.341       .  A
C552        H555   1.069       .  S
N556        C560   1.383       .  A
N556        C557   1.375       .  A
C557        C558   1.365       .  A
C558        C559   1.388       .  A
C558        H561   1.061       .  S
C559        C560   1.378       .  A
C559        H562   1.082       .  S
C560        C755   1.551       .  S
N563        C567   1.378       .  A
N563        C564   1.365       .  A
C564        C565   1.334       .  A
C564        C688   1.536       .  S
C565        C566   1.377       .  A
C565        H568   1.037       .  S
C566        C567   1.376       .  A
C566        H569   1.082       .  S
N570        C574   1.370       .  A
N570        C571   1.392       .  A
C571        C572   1.382       .  A
C572        C573   1.384       .  A
C572        H575   1.082       .  S
C573        C574   1.341       .  A
C573        H576   1.036       .  S
C574        C758   1.539       .  S
N577        C581   1.361       .  A
N577        C578   1.379       .  A
N577        C600   1.400       .  S
C578        C579   1.384       .  A
C578        C721   1.567       .  S
C579        C580   1.387       .  A
C579        H582   1.080       .  S
C580        C581   1.333       .  A
C580        H583   1.050       .  S
N584        C588   1.385       .  A
N584        C585   1.379       .  A
N584        C632   1.417       .  S
C585        C586   1.372       .  A
C585        C724   1.563       .  S
C586        C587   1.368       .  A
C586        H589   1.044       .  S
C587        C588   1.372       .  A
C587        H590   1.082       .  S
O591       C2162   1.261       .  A
O591       Mg593   2.114       .  S
O591      Mg2135   2.194   1_455  S
C592        H631   1.078       .  S
C592        O605   1.233       .  S
C592        O629   1.264       .  A
Mg593      O1390   2.116       .  S
Mg593       O637   2.311       .  S
Mg593      O1401   2.170       .  S
Mg593      O1372   2.333       .  S
O594      Mg1404   2.129       .  S
O594       Mg619   2.102       .  S
O594       C1383   1.233       .  S
O595        C626   1.261       .  A
O595       Mg619   2.269       .  S
C596        N646   1.421       .  S
C596        O598   1.256       .  A
C596        O610   1.271       .  A
O597        C625   1.275       .  A
O597      Mg2135   2.308   1_455  S
O598       Mg630   2.197       .  S
Mg599       O605   2.098       .  S
Mg599      O2133   2.308       .  S
Mg599      O2149   2.186       .  S
Mg599       O601   2.212       .  S
Mg599      O2127   2.194       .  S
C600        O638   1.264       .  A
C600        O606   1.252       .  A
O601        C608   1.252       .  A
H602       C1383   1.077       .  S
C603       H2164   1.075       .  S
C603       O2153   1.234       .  S
C603        O618   1.272   1_655  A
O604        C627   1.273       .  A
O604      Mg1361   2.333   1_545  S
O605       Mg619   2.148       .  S
O606       Mg636   2.180       .  S
C607        N653   1.414       .  S
C607        O620   1.260       .  A
C607        O612   1.270       .  A
C608        N660   1.412       .  S
C608        O635   1.271       .  A
Mg609      O2153   2.136   1_455  S
Mg609       O610   2.311       .  S
Mg609      O2147   2.306   1_455  S
Mg609      O2174   2.169   1_455  S
Mg609       O616   2.147       .  S
O611        C615   1.270   1_545  A
O611      Mg2145   2.306       .  S
O612       Mg619   2.263       .  S
O613        C632   1.256       .  A
O613      Mg2135   2.186   1_455  S
O614        C634   1.248       .  A
O614       Mg630   2.203       .  S
C615       H1370   1.077       .  S
C615       O1362   1.233       .  S
O616        C627   1.265       .  A
O616       Mg630   2.185       .  S
O617      Mg2145   2.136       .  S
O617       Mg636   2.129       .  S
O617       C2139   1.234       .  S
O618       Mg630   2.309       .  S
Mg619       O635   2.216       .  S
O620      Mg1404   2.192       .  S
H621       C2162   1.074       .  S
O622      Mg1361   2.116   1_545  S
O622       Mg630   2.111       .  S
O622       C1393   1.233   1_545  S
H623       C1393   1.070   1_545  S
H624        C627   1.079       .  S
C625       H1391   1.070       .  S
C625       O1390   1.234       .  S
C626       H2157   1.074       .  S
C626       O2127   1.261       .  A
H628       C2139   1.075       .  S
O629      Mg1404   2.276       .  S
C632        O637   1.272       .  A
O633        C634   1.266       .  A
O633      Mg1361   2.170   1_545  S
C634        N639   1.400       .  S
Mg636      O1362   2.129   1_545  S
Mg636      O1388   2.192   1_545  S
Mg636      O1397   2.276   1_545  S
O638      Mg2145   2.169       .  S
N639        C643   1.377       .  A
N639        C640   1.364       .  A
C640        C641   1.334       .  A
C640        C687   1.535       .  S
C641        C642   1.379       .  A
C641        H644   1.038       .  S
C642        C643   1.377       .  A
C642        H645   1.082       .  S
N646        C650   1.384       .  A
N646        C647   1.377       .  A
C647        C648   1.365       .  A
C648        C649   1.389       .  A
C648        H651   1.061       .  S
C649        C650   1.378       .  A
C649        H652   1.082       .  S
C650        C756   1.554       .  S
N653        C657   1.362       .  A
N653        C654   1.368       .  A
C654        C655   1.384       .  A
C654        C690   1.538       .  S
C655        C656   1.377       .  A
C655        H658   1.068       .  S
C656        C657   1.341       .  A
C656        H659   1.070       .  S
N660        C664   1.369       .  A
N660        C661   1.390       .  A
C661        C662   1.383       .  A
C662        C663   1.385       .  A
C662        H665   1.082       .  S
C663        C664   1.340       .  A
C663        H666   1.037       .  S
C664        C757   1.538       .  S
N667        C672   1.353       .  A
N667        C671   1.353       .  A
N667        H699   1.043       .  S
N668       C1443   1.364       .  A
N668        C676   1.375       .  A
N669        C674   1.347       .  A
N669        C673   1.347       .  A
N669        H700   1.042       .  S
N670       C1445   1.363       .  A
N670        C678   1.375       .  A
C671        C679   1.389       .  A
C671        C687   1.417       .  A
C672        C688   1.416       .  A
C672        C680   1.388       .  A
C673        C681   1.384       .  A
C673        C690   1.410       .  A
C674        C689   1.410       .  A
C674        C682   1.385       .  A
C675       N1436   1.364   1_545  A
C675        C687   1.444       .  A
C675        C683   1.379       .  A
C676        C690   1.456       .  A
C676        C684   1.377       .  A
C677       N1438   1.363   1_545  A
C677        C685   1.380       .  A
C677        C688   1.445       .  A
C678        C686   1.378       .  A
C678        C689   1.457       .  A
C679        C680   1.378       .  A
C679        H691   1.080       .  S
C680        H692   1.080       .  S
C681        C682   1.383       .  A
C681        H693   1.077       .  S
C682        H694   1.077       .  S
C683       C1452   1.388       .  A
C683        H695   1.080       .  S
C684       C1451   1.388       .  A
C684        H696   1.074       .  S
C685       C1454   1.388       .  A
C685        H697   1.081       .  S
C686       C1453   1.388       .  A
C686        H698   1.075       .  S
N701        C706   1.356       .  A
N701        H733   1.043       .  S
N702       C1477   1.383       .  A
N702        C710   1.386       .  A
N703        C707   1.355       .  A
N703        H734   1.041       .  S
N704       C1479   1.382       .  A
N704        C712   1.385       .  A
C705        C713   1.390       .  A
C705        C721   1.426       .  A
C706        C722   1.426       .  A
C706        C714   1.389       .  A
C707        C715   1.391       .  A
C707        C724   1.439       .  A
C708        C723   1.438       .  A
C708        C716   1.390       .  A
C709       N1470   1.383   1_545  A
C709        C721   1.467       .  A
C709        C717   1.379       .  A
C710        C724   1.457       .  A
C710        C718   1.386       .  A
C711       N1472   1.382   1_545  A
C711        C719   1.380       .  A
C711        C722   1.467       .  A
C712        C720   1.387       .  A
C712        C723   1.457       .  A
C713        H725   1.081       .  S
C714        H726   1.081       .  S
C715        H727   1.080       .  S
C716        H728   1.080       .  S
C717       C1486   1.379       .  A
C717        H729   1.078       .  S
C718       C1485   1.379       .  A
C718        H730   1.083       .  S
C719       C1488   1.379       .  A
C719        H731   1.078       .  S
C720       C1487   1.379       .  A
C720        H732   1.083       .  S
N735        C740   1.358       .  A
N735        C739   1.358       .  A
N735        H767   1.042       .  S
N736        C743   1.378       .  A
N736        C744   1.380       .  A
N737        C742   1.352       .  A
N737        C741   1.352       .  A
N737        H768   1.042       .  S
N738        C745   1.378       .  A
N738        C746   1.380       .  A
C739        C747   1.389       .  A
C739        C755   1.425       .  A
C740        C756   1.425       .  A
C740        C748   1.389       .  A
C741        C749   1.388       .  A
C741        C758   1.413       .  A
C742        C757   1.413       .  A
C742        C750   1.388       .  A
C743        C755   1.450       .  A
C743        C751   1.376       .  A
C744        C758   1.444       .  A
C744        C752   1.384       .  A
C745        C753   1.376       .  A
C745        C756   1.450       .  A
C746        C754   1.384       .  A
C746        C757   1.445       .  A
C747        C748   1.383       .  A
C747        H759   1.083       .  S
C748        H760   1.083       .  S
C749        C750   1.385       .  A
C749        H761   1.082       .  S
C750        H762   1.082       .  S
C751        C752   1.383       .  A
C751        H763   1.076       .  S
C752        H764   1.080       .  S
C753        C754   1.383       .  A
C753        H765   1.076       .  S
C754        H766   1.081       .  S
N769        C774   1.360       .  A
N769        C773   1.360       .  A
N769        H801   1.039       .  S
N770       C2313   1.375       .  A
N770        C778   1.373       .  A
N771        C776   1.342       .  A
N771        C775   1.341       .  A
N771        H802   1.042       .  S
N772       C2315   1.375       .  A
N772        C780   1.374       .  A
C773        C781   1.387       .  A
C773        C789   1.435       .  A
C774        C790   1.434       .  A
C774        C782   1.387       .  A
C775        C783   1.374       .  A
C775        C792   1.395       .  A
C776        C791   1.395       .  A
C776        C784   1.374       .  A
C777       N2306   1.375   1_455  A
C777        C789   1.437       .  A
C777        C785   1.378       .  A
C778        C792   1.436       .  A
C778        C786   1.387       .  A
C779       N2308   1.375   1_455  A
C779        C787   1.377       .  A
C779        C790   1.437       .  A
C780        C788   1.388       .  A
C780        C791   1.436       .  A
C781        C782   1.379       .  A
C781        H793   1.083       .  S
C782        H794   1.083       .  S
C783        C784   1.372       .  A
C783        H795   1.064       .  S
C784        H796   1.063       .  S
C785       C2322   1.370       .  A
C785        H797   1.082       .  S
C786       C2321   1.370       .  A
C786        H798   1.083       .  S
C787       C2324   1.370       .  A
C787        H799   1.082       .  S
C788       C2323   1.370       .  A
C788        H800   1.083       .  S
C789        C879   1.553       .  S
C790        C972   1.551       .  S
C791        C965   1.519       .  S
C792        C872   1.518       .  S
N803       C1192   1.329       .  A
N803        C807   1.328       .  A
N803        H835   1.042       .  S
N804        C811   1.378       .  A
N804        C812   1.377       .  A
N805       C1194   1.358       .  A
N805        C809   1.358       .  A
N805        H836   1.043       .  S
N806        C813   1.378       .  A
N806        C814   1.377       .  A
C807        C815   1.390       .  A
C807        C823   1.391       .  A
C808       N1187   1.329   1_554  A
C808        C824   1.390       .  A
C808        C816   1.389       .  A
C809        C817   1.389       .  A
C809        C826   1.431       .  A
C810       N1189   1.358   1_554  A
C810        C825   1.431       .  A
C810        C818   1.390       .  A
C811        C823   1.445       .  A
C811        C819   1.387       .  A
C812        C826   1.445       .  A
C812        C820   1.377       .  A
C813        C821   1.387       .  A
C813        C824   1.445       .  A
C814        C822   1.376       .  A
C814        C825   1.445       .  A
C815       C1200   1.379       .  A
C815        H827   1.081       .  S
C816       C1199   1.379   1_554  A
C816        H828   1.081       .  S
C817       C1202   1.385       .  A
C817        H829   1.082       .  S
C818       C1201   1.385   1_554  A
C818        H830   1.082       .  S
C819        C820   1.368       .  A
C819        H831   1.083       .  S
C820        H832   1.080       .  S
C821        C822   1.368       .  A
C821        H833   1.083       .  S
C822        H834   1.080       .  S
C823       C1041   1.483       .  S
C824        C937   1.485       .  S
C825        C951   1.548       .  S
C826       C1027   1.548       .  S
N837       C1226   1.360       .  A
N837        C841   1.359       .  A
N837        H869   1.042       .  S
N838       C2381   1.380   1_455  A
N838        C846   1.381       .  A
N839       C1228   1.353       .  A
N839        C843   1.355       .  A
N839        H870   1.040       .  S
N840       C2383   1.379   1_455  A
N840        C848   1.380       .  A
C841        C849   1.388       .  A
C841        C857   1.429       .  A
C842       N1221   1.360   1_554  A
C842        C858   1.429       .  A
C842        C850   1.388       .  A
C843        C851   1.389       .  A
C843        C860   1.424       .  A
C844       N1223   1.353   1_554  A
C844        C859   1.425       .  A
C844        C852   1.389       .  A
C845       N2374   1.380       .  A
C845        C857   1.455       .  A
C845        C853   1.379       .  A
C846        C860   1.447       .  A
C846        C854   1.386   1_455  A
C847       N2376   1.379       .  A
C847        C855   1.380       .  A
C847        C858   1.453       .  A
C848        C856   1.385   1_455  A
C848        C859   1.445       .  A
C849       C1234   1.382       .  A
C849        H861   1.082       .  S
C850       C1233   1.382   1_554  A
C850        H862   1.082       .  S
C851       C1236   1.391       .  A
C851        H863   1.082       .  S
C852       C1235   1.391   1_554  A
C852        H864   1.082       .  S
C853       C2390   1.381       .  A
C853        H865   1.078       .  S
C854       C2389   1.381       .  A
C854        H866   1.082       .  S
C855       C2392   1.380       .  A
C855        H867   1.078       .  S
C856       C2391   1.380       .  A
C856        H868   1.082       .  S
C857       C1045   1.560       .  S
C858        C955   1.559       .  S
C859        C941   1.538       .  S
C860       C1031   1.542       .  S
N871        C875   1.378       .  A
N871        C872   1.362       .  A
N871        C926   1.400       .  S
C872        C873   1.333       .  A
C873        C874   1.388       .  A
C873        H876   1.052       .  S
C874        C875   1.385       .  A
C874        H877   1.080       .  S
C875       C1106   1.568       .  S
N878        C882   1.380       .  A
N878        C879   1.387       .  A
N878        C894   1.418       .  S
C879        C880   1.371       .  A
C880        C881   1.367       .  A
C880        H883   1.082       .  S
C881        C882   1.372       .  A
C881        H884   1.042       .  S
C882       C1107   1.564       .  S
O885       Mg887   2.127       .  S
O885      Mg2429   2.134       .  S
O885       C2456   1.233       .  S
C886        H925   1.079       .  S
C886        O899   1.264       .  A
C886        O923   1.273       .  A
Mg887       O931   2.183       .  S
O888       Mg913   2.110       .  S
O889        C920   1.271   1_455  A
O889       Mg913   2.309       .  S
C890        N954   1.414       .  S
C890        O892   1.271       .  A
C890        O904   1.252       .  A
O891        C919   1.270       .  A
O891      Mg2429   2.308       .  S
O892       Mg924   2.223       .  S
Mg893      O2421   2.134   1_455  S
Mg893      O2427   2.308   1_455  S
Mg893      O2443   2.165   1_455  S
Mg893       O895   2.313       .  S
Mg893       O899   2.139       .  S
C894        O932   1.255       .  A
C894        O900   1.272       .  A
O895        C902   1.272       .  A
C897       H2458   1.074       .  S
C897       O2447   1.234       .  S
C897        O912   1.263       .  A
O898        C921   1.264       .  A
O899       Mg913   2.185       .  S
O900       Mg930   2.307       .  S
C901        N947   1.401       .  S
C901        O914   1.266       .  A
C901        O906   1.248       .  A
C902        N940   1.420       .  S
C902        O929   1.256       .  A
Mg903       O910   2.098       .  S
Mg903      O2447   2.131       .  S
Mg903       O904   2.214       .  S
Mg903      O2441   2.301       .  S
Mg903      O2468   2.182       .  S
O905        C909   1.272       .  A
O905      Mg2439   2.301   1_455  S
O906       Mg913   2.202       .  S
O907        C926   1.264       .  A
O907      Mg2429   2.165       .  S
O908        C928   1.270       .  A
O908       Mg924   2.264       .  S
O910       Mg924   2.133       .  S
O910        C921   1.233       .  S
O911      Mg2439   2.131   1_455  S
O911       Mg930   2.059       .  S
O911       C2433   1.234       .  S
O912       Mg924   2.260       .  S
Mg913       O929   2.191       .  S
H915       C2456   1.076       .  S
O916       Mg924   2.107       .  S
H918        C921   1.078       .  S
C920       H2451   1.076       .  S
C920       O2421   1.233       .  S
H922       C2433   1.074       .  S
C926        O931   1.253       .  A
O927        C928   1.260       .  A
C928        N933   1.413       .  S
O932      Mg2439   2.182   1_455  S
N933        C937   1.362       .  A
N933        C934   1.368       .  A
C934        C935   1.384       .  A
C934       C1073   1.539       .  S
C935        C936   1.377       .  A
C935        H938   1.068       .  S
C936        C937   1.341       .  A
C936        H939   1.069       .  S
N940        C944   1.383       .  A
N940        C941   1.375       .  A
C941        C942   1.365       .  A
C942        C943   1.388       .  A
C942        H945   1.061       .  S
C943        C944   1.378       .  A
C943        H946   1.082       .  S
C944       C1139   1.551       .  S
N947        C951   1.378       .  A
N947        C948   1.365       .  A
C948        C949   1.334       .  A
C948       C1072   1.536       .  S
C949        C950   1.377       .  A
C949        H952   1.037       .  S
C950        C951   1.376       .  A
C950        H953   1.082       .  S
N954        C958   1.370       .  A
N954        C955   1.392       .  A
C955        C956   1.382       .  A
C956        C957   1.384       .  A
C956        H959   1.082       .  S
C957        C958   1.341       .  A
C957        H960   1.036       .  S
C958       C1142   1.539       .  S
N961        C965   1.361       .  A
N961        C962   1.379       .  A
N961        C984   1.400       .  S
C962        C963   1.384       .  A
C962       C1105   1.567       .  S
C963        C964   1.387       .  A
C963        H966   1.080       .  S
C964        C965   1.333       .  A
C964        H967   1.050       .  S
N968        C972   1.385       .  A
N968        C969   1.379       .  A
N968       C1016   1.417       .  S
C969        C970   1.372       .  A
C969       C1108   1.563       .  S
C970        C971   1.368       .  A
C970        H973   1.044       .  S
C971        C972   1.372       .  A
C971        H974   1.082       .  S
O975       C2546   1.261       .  A
O975       Mg977   2.114       .  S
O975      Mg2519   2.194   1_455  S
C976       H1015   1.078       .  S
C976        O989   1.233       .  S
C976       O1013   1.264       .  A
Mg977      O1021   2.311       .  S
O978      Mg1003   2.102       .  S
O979       C1010   1.261       .  A
O979      Mg1003   2.269       .  S
C980       N1030   1.421       .  S
C980        O982   1.256       .  A
C980        O994   1.271       .  A
O981       C1009   1.275       .  A
O981      Mg2519   2.308   1_455  S
O982      Mg1014   2.197       .  S
Mg983       O989   2.098       .  S
Mg983      O2517   2.308       .  S
Mg983      O2533   2.186       .  S
Mg983       O985   2.212       .  S
Mg983      O2511   2.194       .  S
C984       O1022   1.264       .  A
C984        O990   1.252       .  A
O985        C992   1.252       .  A
C987       H2548   1.075       .  S
C987       O2537   1.234       .  S
C987       O1002   1.272   1_655  A
O988       C1011   1.273       .  A
O989      Mg1003   2.148       .  S
O990      Mg1020   2.180       .  S
C991       N1037   1.414       .  S
C991       O1004   1.260       .  A
C991        O996   1.270       .  A
C992       N1044   1.412       .  S
C992       O1019   1.271       .  A
Mg993      O2537   2.136   1_455  S
Mg993       O994   2.311       .  S
Mg993      O2531   2.306   1_455  S
Mg993      O2558   2.169   1_455  S
Mg993      O1000   2.147       .  S
O995        C999   1.270       .  A
O995      Mg2529   2.306       .  S
O996      Mg1003   2.262       .  S
O997       C1016   1.256       .  A
O997      Mg2519   2.186   1_455  S
O998       C1018   1.248       .  A
O998      Mg1014   2.203       .  S
O1000      C1011   1.265       .  A
O1000     Mg1014   2.185       .  S
O1001     Mg2529   2.136       .  S
O1001     Mg1020   2.129       .  S
O1001      C2523   1.234       .  S
O1002     Mg1014   2.309       .  S
Mg1003     O1019   2.216       .  S
H1005      C2546   1.074       .  S
O1006     Mg1014   2.111       .  S
H1008      C1011   1.079       .  S
C1010      H2541   1.074       .  S
C1010      O2511   1.261       .  A
H1012      C2523   1.075       .  S
C1016      O1021   1.272       .  A
O1017      C1018   1.266       .  A
C1018      N1023   1.400       .  S
O1022     Mg2529   2.169       .  S
N1023      C1027   1.377       .  A
N1023      C1024   1.364       .  A
C1024      C1025   1.334       .  A
C1024      C1071   1.535       .  S
C1025      C1026   1.379       .  A
C1025      H1028   1.038       .  S
C1026      C1027   1.377       .  A
C1026      H1029   1.082       .  S
N1030      C1034   1.384       .  A
N1030      C1031   1.377       .  A
C1031      C1032   1.365       .  A
C1032      C1033   1.389       .  A
C1032      H1035   1.061       .  S
C1033      C1034   1.378       .  A
C1033      H1036   1.082       .  S
C1034      C1140   1.554       .  S
N1037      C1041   1.362       .  A
N1037      C1038   1.368       .  A
C1038      C1039   1.384       .  A
C1038      C1074   1.538       .  S
C1039      C1040   1.377       .  A
C1039      H1042   1.068       .  S
C1040      C1041   1.341       .  A
C1040      H1043   1.070       .  S
N1044      C1048   1.369       .  A
N1044      C1045   1.390       .  A
C1045      C1046   1.383       .  A
C1046      C1047   1.385       .  A
C1046      H1049   1.082       .  S
C1047      C1048   1.340       .  A
C1047      H1050   1.037       .  S
C1048      C1141   1.538       .  S
N1051      C1056   1.353       .  A
N1051      C1055   1.353       .  A
N1051      H1083   1.043       .  S
N1052      C1060   1.375       .  A
N1053      C1058   1.347       .  A
N1053      C1057   1.347       .  A
N1053      H1084   1.042       .  S
N1054      C1062   1.375       .  A
C1055      C1063   1.389       .  A
C1055      C1071   1.417       .  A
C1056      C1072   1.416       .  A
C1056      C1064   1.388       .  A
C1057      C1065   1.384       .  A
C1057      C1074   1.410       .  A
C1058      C1073   1.410       .  A
C1058      C1066   1.385       .  A
C1059      C1071   1.444       .  A
C1059      C1067   1.379       .  A
C1060      C1074   1.456       .  A
C1060      C1068   1.377   1_565  A
C1061      C1069   1.380       .  A
C1061      C1072   1.445       .  A
C1062      C1070   1.378   1_565  A
C1062      C1073   1.457       .  A
C1063      C1064   1.378       .  A
C1063      H1075   1.080       .  S
C1064      H1076   1.080       .  S
C1065      C1066   1.383       .  A
C1065      H1077   1.077       .  S
C1066      H1078   1.077       .  S
C1067      H1079   1.080       .  S
C1068      H1080   1.074       .  S
C1069      H1081   1.081       .  S
C1070      H1082   1.075       .  S
N1085      C1090   1.356       .  A
N1085      C1473   1.356   1_554  A
N1085      H1117   1.043   1_554  S
N1086      C1094   1.386       .  A
N1087      C1476   1.356       .  A
N1087      C1091   1.355       .  A
N1087      H1118   1.041       .  S
N1088      C1096   1.385       .  A
C1089      N1469   1.356       .  A
C1089      C1097   1.390       .  A
C1089      C1105   1.426       .  A
C1090      C1106   1.426       .  A
C1090      C1098   1.389       .  A
C1091      C1099   1.391       .  A
C1091      C1108   1.439       .  A
C1092      N1471   1.356   1_554  A
C1092      C1107   1.438       .  A
C1092      C1100   1.390       .  A
C1093      C1105   1.467       .  A
C1093      C1101   1.379       .  A
C1094      C1108   1.457       .  A
C1094      C1102   1.386   1_565  A
C1095      C1103   1.380       .  A
C1095      C1106   1.467       .  A
C1096      C1104   1.387   1_565  A
C1096      C1107   1.457       .  A
C1097      C1482   1.383       .  A
C1097      H1109   1.081       .  S
C1098      C1481   1.383   1_554  A
C1098      H1110   1.081       .  S
C1099      C1484   1.398       .  A
C1099      H1111   1.080       .  S
C1100      C1483   1.398   1_554  A
C1100      H1112   1.080       .  S
C1101      H1113   1.078       .  S
C1102      H1114   1.083       .  S
C1103      H1115   1.078       .  S
C1104      H1116   1.083       .  S
N1119      C1124   1.358       .  A
N1119      C1123   1.358       .  A
N1119      H1151   1.042       .  S
N1120      C1127   1.378       .  A
N1120      C1128   1.380       .  A
N1121      C1126   1.352       .  A
N1121      C1125   1.352       .  A
N1121      H1152   1.042       .  S
N1122      C1129   1.378       .  A
N1122      C1130   1.380       .  A
C1123      C1131   1.389       .  A
C1123      C1139   1.425       .  A
C1124      C1140   1.425       .  A
C1124      C1132   1.389       .  A
C1125      C1133   1.388       .  A
C1125      C1142   1.413       .  A
C1126      C1141   1.413       .  A
C1126      C1134   1.388       .  A
C1127      C1139   1.450       .  A
C1127      C1135   1.376       .  A
C1128      C1142   1.444       .  A
C1128      C1136   1.384       .  A
C1129      C1137   1.376       .  A
C1129      C1140   1.450       .  A
C1130      C1138   1.384       .  A
C1130      C1141   1.445       .  A
C1131      C1132   1.383       .  A
C1131      H1143   1.083       .  S
C1132      H1144   1.083       .  S
C1133      C1134   1.385       .  A
C1133      H1145   1.082       .  S
C1134      H1146   1.082       .  S
C1135      C1136   1.383       .  A
C1135      H1147   1.076       .  S
C1136      H1148   1.080       .  S
C1137      C1138   1.383       .  A
C1137      H1149   1.076       .  S
C1138      H1150   1.081       .  S
N1153      C1158   1.360       .  A
N1153      C1157   1.360       .  A
N1153      H1185   1.039       .  S
N1154      C2697   1.375       .  A
N1154      C1162   1.373       .  A
N1155      C1160   1.342       .  A
N1155      C1159   1.341       .  A
N1155      H1186   1.042       .  S
N1156      C2699   1.375       .  A
N1156      C1164   1.374       .  A
C1157      C1165   1.387       .  A
C1157      C1173   1.435       .  A
C1158      C1174   1.434       .  A
C1158      C1166   1.387       .  A
C1159      C1167   1.374       .  A
C1159      C1176   1.395       .  A
C1160      C1175   1.395       .  A
C1160      C1168   1.374       .  A
C1161      N2690   1.375   1_455  A
C1161      C1173   1.437       .  A
C1161      C1169   1.378       .  A
C1162      C1176   1.436       .  A
C1162      C1170   1.387       .  A
C1163      N2692   1.375   1_455  A
C1163      C1171   1.377       .  A
C1163      C1174   1.437       .  A
C1164      C1172   1.388       .  A
C1164      C1175   1.436       .  A
C1165      C1166   1.379       .  A
C1165      H1177   1.083       .  S
C1166      H1178   1.083       .  S
C1167      C1168   1.372       .  A
C1167      H1179   1.064       .  S
C1168      H1180   1.064       .  S
C1169      C2706   1.370       .  A
C1169      H1181   1.082       .  S
C1170      C2705   1.370       .  A
C1170      H1182   1.083       .  S
C1171      C2708   1.370       .  A
C1171      H1183   1.082       .  S
C1172      C2707   1.370       .  A
C1172      H1184   1.083       .  S
C1173      C1263   1.553       .  S
C1174      C1356   1.551       .  S
C1175      C1349   1.519       .  S
C1176      C1256   1.518       .  S
N1187      C1191   1.328       .  A
N1187      H1219   1.042       .  S
N1188      C1195   1.378       .  A
N1188      C1196   1.377       .  A
N1189      C1193   1.358       .  A
N1189      H1220   1.043       .  S
N1190      C1197   1.378       .  A
N1190      C1198   1.377       .  A
C1191      C1199   1.390       .  A
C1191      C1207   1.391       .  A
C1192      C1208   1.390       .  A
C1192      C1200   1.389       .  A
C1193      C1201   1.389       .  A
C1193      C1210   1.431       .  A
C1194      C1209   1.432       .  A
C1194      C1202   1.390       .  A
C1195      C1207   1.445       .  A
C1195      C1203   1.387       .  A
C1196      C1210   1.445       .  A
C1196      C1204   1.377       .  A
C1197      C1205   1.387       .  A
C1197      C1208   1.445       .  A
C1198      C1206   1.376       .  A
C1198      C1209   1.445       .  A
C1199      H1211   1.081       .  S
C1200      H1212   1.081       .  S
C1201      H1213   1.082       .  S
C1202      H1214   1.082       .  S
C1203      C1204   1.368       .  A
C1203      H1215   1.083       .  S
C1204      H1216   1.080       .  S
C1205      C1206   1.368       .  A
C1205      H1217   1.083       .  S
C1206      H1218   1.080       .  S
C1207      C1425   1.483       .  S
C1208      C1321   1.485       .  S
C1209      C1335   1.548       .  S
C1210      C1411   1.548       .  S
N1221      C1225   1.359       .  A
N1221      H1253   1.042       .  S
N1222      C2765   1.380   1_455  A
N1222      C1230   1.381       .  A
N1223      C1227   1.355       .  A
N1223      H1254   1.040       .  S
N1224      C2767   1.379   1_455  A
N1224      C1232   1.380       .  A
C1225      C1233   1.388       .  A
C1225      C1241   1.429       .  A
C1226      C1242   1.429       .  A
C1226      C1234   1.388       .  A
C1227      C1235   1.389       .  A
C1227      C1244   1.424       .  A
C1228      C1243   1.425       .  A
C1228      C1236   1.389       .  A
C1229      N2758   1.380       .  A
C1229      C1241   1.455       .  A
C1229      C1237   1.379       .  A
C1230      C1244   1.447       .  A
C1230      C1238   1.386   1_455  A
C1231      N2760   1.379       .  A
C1231      C1239   1.380       .  A
C1231      C1242   1.453       .  A
C1232      C1240   1.385   1_455  A
C1232      C1243   1.445       .  A
C1233      H1245   1.082       .  S
C1234      H1246   1.082       .  S
C1235      H1247   1.082       .  S
C1236      H1248   1.082       .  S
C1237      C2774   1.381       .  A
C1237      H1249   1.078       .  S
C1238      C2773   1.381       .  A
C1238      H1250   1.082       .  S
C1239      C2776   1.380       .  A
C1239      H1251   1.078       .  S
C1240      C2775   1.380       .  A
C1240      H1252   1.082       .  S
C1241      C1429   1.560       .  S
C1242      C1339   1.559       .  S
C1243      C1325   1.538       .  S
C1244      C1415   1.542       .  S
N1255      C1259   1.378       .  A
N1255      C1256   1.362       .  A
N1255      C1310   1.400       .  S
C1256      C1257   1.333       .  A
C1257      C1258   1.388       .  A
C1257      H1260   1.052       .  S
C1258      C1259   1.385       .  A
C1258      H1261   1.080       .  S
C1259      C1490   1.568       .  S
N1262      C1266   1.380       .  A
N1262      C1263   1.387       .  A
N1262      C1278   1.418       .  S
C1263      C1264   1.371       .  A
C1264      C1265   1.367       .  A
C1264      H1267   1.082       .  S
C1265      C1266   1.372       .  A
C1265      H1268   1.042       .  S
C1266      C1491   1.564       .  S
O1269     Mg1271   2.127       .  S
O1269     Mg2813   2.134       .  S
O1269      C2840   1.233       .  S
C1270      H1309   1.079       .  S
C1270      O1283   1.264       .  A
C1270      O1307   1.273       .  A
Mg1271     O1315   2.183       .  S
O1272     Mg1297   2.110       .  S
O1273      C1304   1.271   1_455  A
O1273     Mg1297   2.309       .  S
C1274      N1338   1.414       .  S
C1274      O1276   1.271       .  A
C1274      O1288   1.252       .  A
O1275      C1303   1.270       .  A
O1275     Mg2813   2.308       .  S
O1276     Mg1308   2.223       .  S
Mg1277     O2805   2.134   1_455  S
Mg1277     O2811   2.308   1_455  S
Mg1277     O2827   2.165   1_455  S
Mg1277     O1279   2.313       .  S
Mg1277     O1283   2.139       .  S
C1278      O1316   1.255       .  A
C1278      O1284   1.272       .  A
O1279      C1286   1.272       .  A
C1281      H2842   1.074       .  S
C1281      O2831   1.234       .  S
C1281      O1296   1.263       .  A
O1282      C1305   1.264       .  A
O1283     Mg1297   2.185       .  S
O1284     Mg1314   2.307       .  S
C1285      N1331   1.401       .  S
C1285      O1298   1.266       .  A
C1285      O1290   1.248       .  A
C1286      N1324   1.420       .  S
C1286      O1313   1.256       .  A
Mg1287     O1294   2.098       .  S
Mg1287     O2831   2.131       .  S
Mg1287     O1288   2.214       .  S
Mg1287     O2825   2.301       .  S
Mg1287     O2852   2.183       .  S
O1289      C1293   1.272       .  A
O1289     Mg2823   2.301   1_455  S
O1290     Mg1297   2.203       .  S
O1291      C1310   1.264       .  A
O1291     Mg2813   2.165       .  S
O1292      C1312   1.270       .  A
O1292     Mg1308   2.264       .  S
O1294     Mg1308   2.133       .  S
O1294      C1305   1.233       .  S
O1295     Mg2823   2.131   1_455  S
O1295     Mg1314   2.059       .  S
O1295      C2817   1.234       .  S
O1296     Mg1308   2.260       .  S
Mg1297     O1313   2.191       .  S
H1299      C2840   1.076       .  S
O1300     Mg1308   2.107       .  S
H1302      C1305   1.078       .  S
C1304      H2835   1.076       .  S
C1304      O2805   1.233       .  S
H1306      C2817   1.074       .  S
C1310      O1315   1.252       .  A
O1311      C1312   1.260       .  A
C1312      N1317   1.413       .  S
O1316     Mg2823   2.183   1_455  S
N1317      C1321   1.362       .  A
N1317      C1318   1.368       .  A
C1318      C1319   1.384       .  A
C1318      C1457   1.539       .  S
C1319      C1320   1.377       .  A
C1319      H1322   1.068       .  S
C1320      C1321   1.341       .  A
C1320      H1323   1.069       .  S
N1324      C1328   1.383       .  A
N1324      C1325   1.375       .  A
C1325      C1326   1.365       .  A
C1326      C1327   1.388       .  A
C1326      H1329   1.061       .  S
C1327      C1328   1.378       .  A
C1327      H1330   1.082       .  S
C1328      C1523   1.551       .  S
N1331      C1335   1.378       .  A
N1331      C1332   1.365       .  A
C1332      C1333   1.334       .  A
C1332      C1456   1.536       .  S
C1333      C1334   1.377       .  A
C1333      H1336   1.037       .  S
C1334      C1335   1.376       .  A
C1334      H1337   1.082       .  S
N1338      C1342   1.370       .  A
N1338      C1339   1.392       .  A
C1339      C1340   1.382       .  A
C1340      C1341   1.384       .  A
C1340      H1343   1.082       .  S
C1341      C1342   1.341       .  A
C1341      H1344   1.036       .  S
C1342      C1526   1.539       .  S
N1345      C1349   1.361       .  A
N1345      C1346   1.379       .  A
N1345      C1368   1.400       .  S
C1346      C1347   1.384       .  A
C1346      C1489   1.567       .  S
C1347      C1348   1.387       .  A
C1347      H1350   1.080       .  S
C1348      C1349   1.333       .  A
C1348      H1351   1.050       .  S
N1352      C1356   1.385       .  A
N1352      C1353   1.379       .  A
N1352      C1400   1.418       .  S
C1353      C1354   1.372       .  A
C1353      C1492   1.563       .  S
C1354      C1355   1.368       .  A
C1354      H1357   1.043       .  S
C1355      C1356   1.372       .  A
C1355      H1358   1.082       .  S
O1359      C2930   1.261       .  A
O1359     Mg1361   2.114       .  S
O1359     Mg2903   2.194   1_455  S
C1360      H1399   1.078       .  S
C1360      O1373   1.233       .  S
C1360      O1397   1.264       .  A
Mg1361     O1405   2.311       .  S
O1362     Mg1387   2.103       .  S
O1363      C1394   1.261       .  A
O1363     Mg1387   2.269       .  S
C1364      N1414   1.421       .  S
C1364      O1366   1.256       .  A
C1364      O1378   1.271       .  A
O1365      C1393   1.275       .  A
O1365     Mg2903   2.308   1_455  S
O1366     Mg1398   2.197       .  S
Mg1367     O1373   2.098       .  S
Mg1367     O2901   2.308       .  S
Mg1367     O2917   2.186       .  S
Mg1367     O1369   2.212       .  S
Mg1367     O2895   2.194       .  S
C1368      O1406   1.264       .  A
C1368      O1374   1.252       .  A
O1369      C1376   1.252       .  A
C1371      H2932   1.075       .  S
C1371      O2921   1.234       .  S
C1371      O1386   1.272   1_655  A
O1372      C1395   1.273       .  A
O1373     Mg1387   2.147       .  S
O1374     Mg1404   2.180       .  S
C1375      N1421   1.414       .  S
C1375      O1388   1.260       .  A
C1375      O1380   1.270       .  A
C1376      N1428   1.412       .  S
C1376      O1403   1.271       .  A
Mg1377     O2921   2.136   1_455  S
Mg1377     O1378   2.310       .  S
Mg1377     O2915   2.306   1_455  S
Mg1377     O2942   2.169   1_455  S
Mg1377     O1384   2.147       .  S
O1379      C1383   1.270       .  A
O1379     Mg2913   2.306       .  S
O1380     Mg1387   2.262       .  S
O1381      C1400   1.256       .  A
O1381     Mg2903   2.186   1_455  S
O1382      C1402   1.248       .  A
O1382     Mg1398   2.203       .  S
O1384      C1395   1.265       .  A
O1384     Mg1398   2.185       .  S
O1385     Mg2913   2.136       .  S
O1385     Mg1404   2.129       .  S
O1385      C2907   1.234       .  S
O1386     Mg1398   2.309       .  S
Mg1387     O1403   2.217       .  S
H1389      C2930   1.074       .  S
O1390     Mg1398   2.110       .  S
H1392      C1395   1.079       .  S
C1394      H2925   1.074       .  S
C1394      O2895   1.261       .  A
H1396      C2907   1.075       .  S
C1400      O1405   1.272       .  A
O1401      C1402   1.266       .  A
C1402      N1407   1.400       .  S
O1406     Mg2913   2.169       .  S
N1407      C1411   1.377       .  A
N1407      C1408   1.364       .  A
C1408      C1409   1.334       .  A
C1408      C1455   1.535       .  S
C1409      C1410   1.379       .  A
C1409      H1412   1.038       .  S
C1410      C1411   1.377       .  A
C1410      H1413   1.082       .  S
N1414      C1418   1.384       .  A
N1414      C1415   1.377       .  A
C1415      C1416   1.365       .  A
C1416      C1417   1.389       .  A
C1416      H1419   1.061       .  S
C1417      C1418   1.378       .  A
C1417      H1420   1.082       .  S
C1418      C1524   1.554       .  S
N1421      C1425   1.362       .  A
N1421      C1422   1.368       .  A
C1422      C1423   1.384       .  A
C1422      C1458   1.538       .  S
C1423      C1424   1.377       .  A
C1423      H1426   1.068       .  S
C1424      C1425   1.341       .  A
C1424      H1427   1.070       .  S
N1428      C1432   1.369       .  A
N1428      C1429   1.390       .  A
C1429      C1430   1.383       .  A
C1430      C1431   1.385       .  A
C1430      H1433   1.082       .  S
C1431      C1432   1.340       .  A
C1431      H1434   1.037       .  S
C1432      C1525   1.538       .  S
N1435      C1440   1.353       .  A
N1435      C1439   1.353       .  A
N1435      H1467   1.043       .  S
N1436      C1444   1.375       .  A
N1437      C1442   1.347       .  A
N1437      C1441   1.347       .  A
N1437      H1468   1.042       .  S
N1438      C1446   1.374       .  A
C1439      C1447   1.389       .  A
C1439      C1455   1.417       .  A
C1440      C1456   1.416       .  A
C1440      C1448   1.388       .  A
C1441      C1449   1.384       .  A
C1441      C1458   1.409       .  A
C1442      C1457   1.410       .  A
C1442      C1450   1.385       .  A
C1443      C1455   1.444       .  A
C1443      C1451   1.379       .  A
C1444      C1458   1.456       .  A
C1444      C1452   1.377   1_565  A
C1445      C1453   1.380       .  A
C1445      C1456   1.445       .  A
C1446      C1454   1.378   1_565  A
C1446      C1457   1.457       .  A
C1447      C1448   1.378       .  A
C1447      H1459   1.080       .  S
C1448      H1460   1.080       .  S
C1449      C1450   1.383       .  A
C1449      H1461   1.077       .  S
C1450      H1462   1.077       .  S
C1451      H1463   1.080       .  S
C1452      H1464   1.074       .  S
C1453      H1465   1.081       .  S
C1454      H1466   1.075       .  S
N1469      C1474   1.356       .  A
N1469      H1501   1.043       .  S
N1470      C1478   1.386       .  A
N1471      C1475   1.355       .  A
N1471      H1502   1.041       .  S
N1472      C1480   1.385       .  A
C1473      C1481   1.390       .  A
C1473      C1489   1.426       .  A
C1474      C1490   1.426       .  A
C1474      C1482   1.389       .  A
C1475      C1483   1.391       .  A
C1475      C1492   1.439       .  A
C1476      C1491   1.438       .  A
C1476      C1484   1.390       .  A
C1477      C1489   1.467       .  A
C1477      C1485   1.379       .  A
C1478      C1492   1.457       .  A
C1478      C1486   1.386   1_565  A
C1479      C1487   1.380       .  A
C1479      C1490   1.467       .  A
C1480      C1488   1.387   1_565  A
C1480      C1491   1.457       .  A
C1481      H1493   1.081       .  S
C1482      H1494   1.081       .  S
C1483      H1495   1.080       .  S
C1484      H1496   1.080       .  S
C1485      H1497   1.078       .  S
C1486      H1498   1.083       .  S
C1487      H1499   1.078       .  S
C1488      H1500   1.083       .  S
N1503      C1508   1.358       .  A
N1503      C1507   1.358       .  A
N1503      H1535   1.042       .  S
N1504      C1511   1.378       .  A
N1504      C1512   1.380       .  A
N1505      C1510   1.352       .  A
N1505      C1509   1.352       .  A
N1505      H1536   1.042       .  S
N1506      C1513   1.378       .  A
N1506      C1514   1.380       .  A
C1507      C1515   1.389       .  A
C1507      C1523   1.425       .  A
C1508      C1524   1.425       .  A
C1508      C1516   1.389       .  A
C1509      C1517   1.388       .  A
C1509      C1526   1.413       .  A
C1510      C1525   1.413       .  A
C1510      C1518   1.388       .  A
C1511      C1523   1.449       .  A
C1511      C1519   1.376       .  A
C1512      C1526   1.444       .  A
C1512      C1520   1.384       .  A
C1513      C1521   1.376       .  A
C1513      C1524   1.450       .  A
C1514      C1522   1.384       .  A
C1514      C1525   1.445       .  A
C1515      C1516   1.383       .  A
C1515      H1527   1.083       .  S
C1516      H1528   1.083       .  S
C1517      C1518   1.385       .  A
C1517      H1529   1.082       .  S
C1518      H1530   1.082       .  S
C1519      C1520   1.383       .  A
C1519      H1531   1.076       .  S
C1520      H1532   1.080       .  S
C1521      C1522   1.383       .  A
C1521      H1533   1.076       .  S
C1522      H1534   1.081       .  S
N1537      C1542   1.360       .  A
N1537      C1541   1.360       .  A
N1537      H1569   1.039       .  S
N1538      C1546   1.373       .  A
N1539      C1544   1.342       .  A
N1539      C1543   1.341       .  A
N1539      H1570   1.042       .  S
N1540      C1548   1.374       .  A
C1541      C1549   1.387       .  A
C1541      C1557   1.435       .  A
C1542      C1558   1.434       .  A
C1542      C1550   1.387       .  A
C1543      C1551   1.374       .  A
C1543      C1560   1.395       .  A
C1544      C1559   1.395       .  A
C1544      C1552   1.374       .  A
C1545      C1557   1.437       .  A
C1545      C1553   1.378       .  A
C1546      C1560   1.436       .  A
C1546      C1554   1.387   1_655  A
C1547      C1555   1.377       .  A
C1547      C1558   1.437       .  A
C1548      C1556   1.388   1_655  A
C1548      C1559   1.436       .  A
C1549      C1550   1.379       .  A
C1549      H1561   1.083       .  S
C1550      H1562   1.083       .  S
C1551      C1552   1.372       .  A
C1551      H1563   1.064       .  S
C1552      H1564   1.064       .  S
C1553      H1565   1.082       .  S
C1554      H1566   1.083       .  S
C1555      H1567   1.082       .  S
C1556      H1568   1.083       .  S
C1557      C1647   1.553       .  S
C1558      C1740   1.551       .  S
C1559      C1733   1.519       .  S
C1560      C1640   1.518       .  S
N1571      C1960   1.329       .  A
N1571      C1575   1.328       .  A
N1571      H1603   1.042       .  S
N1572      C1579   1.378       .  A
N1572      C1580   1.377       .  A
N1573      C1962   1.358       .  A
N1573      C1577   1.358       .  A
N1573      H1604   1.043       .  S
N1574      C1581   1.378       .  A
N1574      C1582   1.377       .  A
C1575      C1583   1.390       .  A
C1575      C1591   1.391       .  A
C1576      N1955   1.329   1_554  A
C1576      C1592   1.390       .  A
C1576      C1584   1.389       .  A
C1577      C1585   1.389       .  A
C1577      C1594   1.431       .  A
C1578      N1957   1.358   1_554  A
C1578      C1593   1.432       .  A
C1578      C1586   1.390       .  A
C1579      C1591   1.445       .  A
C1579      C1587   1.387       .  A
C1580      C1594   1.445       .  A
C1580      C1588   1.377       .  A
C1581      C1589   1.387       .  A
C1581      C1592   1.445       .  A
C1582      C1590   1.376       .  A
C1582      C1593   1.445       .  A
C1583      C1968   1.379       .  A
C1583      H1595   1.081       .  S
C1584      C1967   1.379   1_554  A
C1584      H1596   1.081       .  S
C1585      C1970   1.385       .  A
C1585      H1597   1.082       .  S
C1586      C1969   1.385   1_554  A
C1586      H1598   1.082       .  S
C1587      C1588   1.368       .  A
C1587      H1599   1.083       .  S
C1588      H1600   1.080       .  S
C1589      C1590   1.368       .  A
C1589      H1601   1.083       .  S
C1590      H1602   1.080       .  S
C1591      C1809   1.483       .  S
C1592      C1705   1.485       .  S
C1593      C1719   1.548       .  S
C1594      C1795   1.548       .  S
N1605      C1994   1.360       .  A
N1605      C1609   1.359       .  A
N1605      H1637   1.042       .  S
N1606      C1614   1.381       .  A
N1607      C1996   1.353       .  A
N1607      C1611   1.355       .  A
N1607      H1638   1.040       .  S
N1608      C1616   1.380       .  A
C1609      C1617   1.388       .  A
C1609      C1625   1.429       .  A
C1610      N1989   1.360   1_554  A
C1610      C1626   1.429       .  A
C1610      C1618   1.388       .  A
C1611      C1619   1.389       .  A
C1611      C1628   1.424       .  A
C1612      N1991   1.353   1_554  A
C1612      C1627   1.425       .  A
C1612      C1620   1.389       .  A
C1613      C1625   1.455       .  A
C1613      C1621   1.379       .  A
C1614      C1628   1.447       .  A
C1614      C1622   1.386       .  A
C1615      C1623   1.380       .  A
C1615      C1626   1.453       .  A
C1616      C1624   1.385       .  A
C1616      C1627   1.445       .  A
C1617      C2002   1.382       .  A
C1617      H1629   1.082       .  S
C1618      C2001   1.382   1_554  A
C1618      H1630   1.082       .  S
C1619      C2004   1.391       .  A
C1619      H1631   1.082       .  S
C1620      C2003   1.391   1_554  A
C1620      H1632   1.082       .  S
C1621      H1633   1.078       .  S
C1622      H1634   1.082       .  S
C1623      H1635   1.078       .  S
C1624      H1636   1.082       .  S
C1625      C1813   1.560       .  S
C1626      C1723   1.559       .  S
C1627      C1709   1.538       .  S
C1628      C1799   1.542       .  S
N1639      C1643   1.378       .  A
N1639      C1640   1.362       .  A
N1639      C1694   1.400       .  S
C1640      C1641   1.333       .  A
C1641      C1642   1.388       .  A
C1641      H1644   1.052       .  S
C1642      C1643   1.385       .  A
C1642      H1645   1.080       .  S
C1643      C1874   1.568       .  S
N1646      C1650   1.380       .  A
N1646      C1647   1.387       .  A
N1646      C1662   1.418       .  S
C1647      C1648   1.371       .  A
C1648      C1649   1.367       .  A
C1648      H1651   1.082       .  S
C1649      C1650   1.372       .  A
C1649      H1652   1.042       .  S
C1650      C1875   1.564       .  S
O1653     Mg1655   2.127       .  S
C1654      H1693   1.079       .  S
C1654      O1667   1.264       .  A
C1654      O1691   1.273       .  A
Mg1655     O2452   2.133   1_545  S
Mg1655     O1699   2.183       .  S
Mg1655     O2463   2.187   1_545  S
Mg1655     O2434   2.273   1_545  S
O1656     Mg2466   2.114   1_545  S
O1656     Mg1681   2.110       .  S
O1656      C2445   1.232   1_545  S
O1657      C1688   1.271       .  A
O1657     Mg1681   2.309       .  S
C1658      N1722   1.414       .  S
C1658      O1660   1.271       .  A
C1658      O1672   1.252       .  A
O1659      C1687   1.270   1_545  A
O1660     Mg1692   2.223       .  S
Mg1661     O1663   2.313       .  S
Mg1661     O1667   2.139       .  S
C1662      O1700   1.255       .  A
C1662      O1668   1.272       .  A
O1663      C1670   1.272       .  A
H1664      C2445   1.069   1_545  S
C1665      O1680   1.263   1_455  A
O1666      C1689   1.264       .  A
O1666     Mg2423   2.273       .  S
O1667     Mg1681   2.185       .  S
O1668     Mg1698   2.307       .  S
C1669      N1715   1.401       .  S
C1669      O1682   1.266       .  A
C1669      O1674   1.248       .  A
C1670      N1708   1.420       .  S
C1670      O1697   1.256       .  A
Mg1671     O1678   2.098       .  S
Mg1671     O1672   2.214       .  S
O1673      C1677   1.272       .  A
O1674     Mg1681   2.203       .  S
O1675      C1694   1.264       .  A
O1676      C1696   1.270       .  A
O1676     Mg1692   2.264       .  S
C1677      H2432   1.069       .  S
C1677      O2424   1.232       .  S
O1678     Mg1692   2.133       .  S
O1678      C1689   1.233       .  S
O1679     Mg1698   2.059       .  S
O1680     Mg1692   2.260       .  S
Mg1681     O1697   2.191       .  S
O1682     Mg2466   2.181   1_545  S
O1684     Mg2423   2.133       .  S
O1684     Mg1692   2.107       .  S
O1684      C2455   1.233       .  S
H1685      C2455   1.077       .  S
H1686      C1689   1.078       .  S
C1687      H2453   1.077       .  S
C1687      O2452   1.233       .  S
O1691     Mg2466   2.335   1_545  S
C1694      O1699   1.252       .  A
O1695      C1696   1.260       .  A
O1695     Mg2423   2.187       .  S
C1696      N1701   1.413       .  S
Mg1698     O2424   2.115       .  S
Mg1698     O2450   2.181       .  S
Mg1698     O2459   2.336       .  S
N1701      C1705   1.362       .  A
N1701      C1702   1.368       .  A
C1702      C1703   1.384       .  A
C1702      C1841   1.539       .  S
C1703      C1704   1.377       .  A
C1703      H1706   1.068       .  S
C1704      C1705   1.341       .  A
C1704      H1707   1.069       .  S
N1708      C1712   1.383       .  A
N1708      C1709   1.375       .  A
C1709      C1710   1.365       .  A
C1710      C1711   1.388       .  A
C1710      H1713   1.061       .  S
C1711      C1712   1.378       .  A
C1711      H1714   1.082       .  S
C1712      C1907   1.551       .  S
N1715      C1719   1.378       .  A
N1715      C1716   1.365       .  A
C1716      C1717   1.334       .  A
C1716      C1840   1.536       .  S
C1717      C1718   1.377       .  A
C1717      H1720   1.037       .  S
C1718      C1719   1.376       .  A
C1718      H1721   1.082       .  S
N1722      C1726   1.370       .  A
N1722      C1723   1.392       .  A
C1723      C1724   1.382       .  A
C1724      C1725   1.384       .  A
C1724      H1727   1.082       .  S
C1725      C1726   1.341       .  A
C1725      H1728   1.036       .  S
C1726      C1910   1.539       .  S
N1729      C1733   1.361       .  A
N1729      C1730   1.379       .  A
N1729      C1752   1.400       .  S
C1730      C1731   1.384       .  A
C1730      C1873   1.567       .  S
C1731      C1732   1.387       .  A
C1731      H1734   1.080       .  S
C1732      C1733   1.333       .  A
C1732      H1735   1.050       .  S
N1736      C1740   1.385       .  A
N1736      C1737   1.379       .  A
N1736      C1784   1.418       .  S
C1737      C1738   1.372       .  A
C1737      C1876   1.563       .  S
C1738      C1739   1.368       .  A
C1738      H1741   1.043       .  S
C1739      C1740   1.372       .  A
C1739      H1742   1.082       .  S
O1743     Mg1745   2.114       .  S
C1744      H1783   1.078       .  S
C1744      O1757   1.233       .  S
C1744      O1781   1.264       .  A
Mg1745     O2542   2.116       .  S
Mg1745     O1789   2.311       .  S
Mg1745     O2553   2.170       .  S
Mg1745     O2524   2.333       .  S
O1746     Mg2556   2.129       .  S
O1746     Mg1771   2.103       .  S
O1746      C2535   1.233       .  S
O1747      C1778   1.261   1_655  A
O1747     Mg1771   2.269       .  S
C1748      N1798   1.421       .  S
C1748      O1750   1.256       .  A
C1748      O1762   1.271       .  A
O1749      C1777   1.275       .  A
O1750     Mg1782   2.197       .  S
Mg1751     O1757   2.098       .  S
Mg1751     O1753   2.212       .  S
C1752      O1790   1.264       .  A
C1752      O1758   1.252       .  A
O1753      C1760   1.252       .  A
H1754      C2535   1.077       .  S
C1755      O1770   1.272       .  A
O1756      C1779   1.273       .  A
O1756     Mg2513   2.333   1_545  S
O1757     Mg1771   2.147       .  S
O1758     Mg1788   2.180       .  S
C1759      N1805   1.414       .  S
C1759      O1772   1.260       .  A
C1759      O1764   1.270       .  A
C1760      N1812   1.412       .  S
C1760      O1787   1.271       .  A
Mg1761     O1762   2.310       .  S
Mg1761     O1768   2.147       .  S
O1763      C1767   1.270   1_545  A
O1764     Mg1771   2.262       .  S
O1765      C1784   1.256       .  A
O1766      C1786   1.248       .  A
O1766     Mg1782   2.203       .  S
C1767      H2522   1.077       .  S
C1767      O2514   1.233       .  S
O1768      C1779   1.265       .  A
O1768     Mg1782   2.185       .  S
O1769     Mg1788   2.129       .  S
O1770     Mg1782   2.309       .  S
Mg1771     O1787   2.217       .  S
O1772     Mg2556   2.192       .  S
O1774     Mg2513   2.116   1_545  S
O1774     Mg1782   2.110       .  S
O1774      C2545   1.234   1_545  S
H1775      C2545   1.070   1_545  S
H1776      C1779   1.079       .  S
C1777      H2543   1.070       .  S
C1777      O2542   1.233       .  S
O1781     Mg2556   2.276       .  S
C1784      O1789   1.272       .  A
O1785      C1786   1.266       .  A
O1785     Mg2513   2.170   1_545  S
C1786      N1791   1.400       .  S
Mg1788     O2514   2.129   1_545  S
Mg1788     O2540   2.192   1_545  S
Mg1788     O2549   2.276   1_545  S
N1791      C1795   1.377       .  A
N1791      C1792   1.364       .  A
C1792      C1793   1.334       .  A
C1792      C1839   1.535       .  S
C1793      C1794   1.379       .  A
C1793      H1796   1.038       .  S
C1794      C1795   1.377       .  A
C1794      H1797   1.082       .  S
N1798      C1802   1.384       .  A
N1798      C1799   1.377       .  A
C1799      C1800   1.365       .  A
C1800      C1801   1.389       .  A
C1800      H1803   1.061       .  S
C1801      C1802   1.378       .  A
C1801      H1804   1.082       .  S
C1802      C1908   1.554       .  S
N1805      C1809   1.362       .  A
N1805      C1806   1.368       .  A
C1806      C1807   1.384       .  A
C1806      C1842   1.538       .  S
C1807      C1808   1.377       .  A
C1807      H1810   1.068       .  S
C1808      C1809   1.341       .  A
C1808      H1811   1.070       .  S
N1812      C1816   1.369       .  A
N1812      C1813   1.390       .  A
C1813      C1814   1.383       .  A
C1814      C1815   1.385       .  A
C1814      H1817   1.082       .  S
C1815      C1816   1.340       .  A
C1815      H1818   1.037       .  S
C1816      C1909   1.538       .  S
N1819      C1824   1.353       .  A
N1819      C1823   1.353       .  A
N1819      H1851   1.043       .  S
N1820      C2595   1.364       .  A
N1820      C1828   1.375       .  A
N1821      C1826   1.347       .  A
N1821      C1825   1.347       .  A
N1821      H1852   1.042       .  S
N1822      C2597   1.363       .  A
N1822      C1830   1.374       .  A
C1823      C1831   1.389       .  A
C1823      C1839   1.417       .  A
C1824      C1840   1.416       .  A
C1824      C1832   1.388       .  A
C1825      C1833   1.384       .  A
C1825      C1842   1.409       .  A
C1826      C1841   1.410       .  A
C1826      C1834   1.385       .  A
C1827      N2588   1.364   1_545  A
C1827      C1839   1.444       .  A
C1827      C1835   1.379       .  A
C1828      C1842   1.456       .  A
C1828      C1836   1.377       .  A
C1829      N2590   1.363   1_545  A
C1829      C1837   1.380       .  A
C1829      C1840   1.445       .  A
C1830      C1838   1.378       .  A
C1830      C1841   1.457       .  A
C1831      C1832   1.378       .  A
C1831      H1843   1.080       .  S
C1832      H1844   1.080       .  S
C1833      C1834   1.383       .  A
C1833      H1845   1.077       .  S
C1834      H1846   1.077       .  S
C1835      C2604   1.388       .  A
C1835      H1847   1.080       .  S
C1836      C2603   1.388       .  A
C1836      H1848   1.074       .  S
C1837      C2606   1.388       .  A
C1837      H1849   1.081       .  S
C1838      C2605   1.388       .  A
C1838      H1850   1.075       .  S
N1853      C1858   1.356   1_556  A
N1853      C2241   1.356       .  A
N1853      H1885   1.043       .  S
N1854      C2629   1.383       .  A
N1854      C1862   1.386       .  A
N1855      C2244   1.356       .  A
N1855      C1859   1.355       .  A
N1855      H1886   1.041       .  S
N1856      C2631   1.382       .  A
N1856      C1864   1.385       .  A
C1857      N2237   1.356       .  A
C1857      C1865   1.390       .  A
C1857      C1873   1.426       .  A
C1858      C1874   1.426       .  A
C1858      C1866   1.389       .  A
C1859      C1867   1.391       .  A
C1859      C1876   1.439       .  A
C1860      N2239   1.356   1_554  A
C1860      C1875   1.438       .  A
C1860      C1868   1.390       .  A
C1861      N2622   1.383   1_545  A
C1861      C1873   1.467       .  A
C1861      C1869   1.379       .  A
C1862      C1876   1.457       .  A
C1862      C1870   1.386       .  A
C1863      N2624   1.382   1_545  A
C1863      C1871   1.380       .  A
C1863      C1874   1.467       .  A
C1864      C1872   1.387       .  A
C1864      C1875   1.457       .  A
C1865      C2250   1.383       .  A
C1865      H1877   1.081       .  S
C1866      C2249   1.383   1_554  A
C1866      H1878   1.081       .  S
C1867      C2252   1.398       .  A
C1867      H1879   1.080       .  S
C1868      C2251   1.398   1_554  A
C1868      H1880   1.080       .  S
C1869      C2638   1.379       .  A
C1869      H1881   1.078       .  S
C1870      C2637   1.379       .  A
C1870      H1882   1.083       .  S
C1871      C2640   1.379       .  A
C1871      H1883   1.078       .  S
C1872      C2639   1.379       .  A
C1872      H1884   1.083       .  S
N1887      C1892   1.358       .  A
N1887      C1891   1.358       .  A
N1887      H1919   1.042       .  S
N1888      C1895   1.378       .  A
N1888      C1896   1.380       .  A
N1889      C1894   1.352       .  A
N1889      C1893   1.352       .  A
N1889      H1920   1.042       .  S
N1890      C1897   1.378       .  A
N1890      C1898   1.380       .  A
C1891      C1899   1.389       .  A
C1891      C1907   1.425       .  A
C1892      C1908   1.425       .  A
C1892      C1900   1.389       .  A
C1893      C1901   1.388       .  A
C1893      C1910   1.413       .  A
C1894      C1909   1.413       .  A
C1894      C1902   1.388       .  A
C1895      C1907   1.449       .  A
C1895      C1903   1.376       .  A
C1896      C1910   1.444       .  A
C1896      C1904   1.384       .  A
C1897      C1905   1.376       .  A
C1897      C1908   1.450       .  A
C1898      C1906   1.384       .  A
C1898      C1909   1.445       .  A
C1899      C1900   1.383       .  A
C1899      H1911   1.083       .  S
C1900      H1912   1.083       .  S
C1901      C1902   1.385       .  A
C1901      H1913   1.082       .  S
C1902      H1914   1.082       .  S
C1903      C1904   1.383       .  A
C1903      H1915   1.076       .  S
C1904      H1916   1.080       .  S
C1905      C1906   1.383       .  A
C1905      H1917   1.076       .  S
C1906      H1918   1.081       .  S
N1921      C1926   1.360       .  A
N1921      C1925   1.360       .  A
N1921      H1953   1.039       .  S
N1922      C1930   1.373       .  A
N1923      C1928   1.342       .  A
N1923      C1927   1.341       .  A
N1923      H1954   1.042       .  S
N1924      C1932   1.374       .  A
C1925      C1933   1.387       .  A
C1925      C1941   1.435       .  A
C1926      C1942   1.434       .  A
C1926      C1934   1.387       .  A
C1927      C1935   1.374       .  A
C1927      C1944   1.395       .  A
C1928      C1943   1.395       .  A
C1928      C1936   1.374       .  A
C1929      C1941   1.437       .  A
C1929      C1937   1.378       .  A
C1930      C1944   1.436       .  A
C1930      C1938   1.387   1_655  A
C1931      C1939   1.377       .  A
C1931      C1942   1.437       .  A
C1932      C1940   1.388   1_655  A
C1932      C1943   1.436       .  A
C1933      C1934   1.379       .  A
C1933      H1945   1.083       .  S
C1934      H1946   1.083       .  S
C1935      C1936   1.372       .  A
C1935      H1947   1.064       .  S
C1936      H1948   1.063       .  S
C1937      H1949   1.082       .  S
C1938      H1950   1.083       .  S
C1939      H1951   1.082       .  S
C1940      H1952   1.083       .  S
C1941      C2031   1.553       .  S
C1942      C2124   1.551       .  S
C1943      C2117   1.519       .  S
C1944      C2024   1.518       .  S
N1955      C1959   1.328       .  A
N1955      H1987   1.042       .  S
N1956      C1963   1.378       .  A
N1956      C1964   1.377       .  A
N1957      C1961   1.358       .  A
N1957      H1988   1.043       .  S
N1958      C1965   1.378       .  A
N1958      C1966   1.377       .  A
C1959      C1967   1.390       .  A
C1959      C1975   1.391       .  A
C1960      C1976   1.390       .  A
C1960      C1968   1.389       .  A
C1961      C1969   1.389       .  A
C1961      C1978   1.431       .  A
C1962      C1977   1.431       .  A
C1962      C1970   1.390       .  A
C1963      C1975   1.445       .  A
C1963      C1971   1.387       .  A
C1964      C1978   1.445       .  A
C1964      C1972   1.377       .  A
C1965      C1973   1.387       .  A
C1965      C1976   1.445       .  A
C1966      C1974   1.376       .  A
C1966      C1977   1.445       .  A
C1967      H1979   1.081       .  S
C1968      H1980   1.081       .  S
C1969      H1981   1.082       .  S
C1970      H1982   1.082       .  S
C1971      C1972   1.368       .  A
C1971      H1983   1.083       .  S
C1972      H1984   1.080       .  S
C1973      C1974   1.368       .  A
C1973      H1985   1.083       .  S
C1974      H1986   1.080       .  S
C1975      C2193   1.483       .  S
C1976      C2089   1.485       .  S
C1977      C2103   1.548       .  S
C1978      C2179   1.548       .  S
N1989      C1993   1.359       .  A
N1989      H2021   1.042       .  S
N1990      C1998   1.381       .  A
N1991      C1995   1.355       .  A
N1991      H2022   1.040       .  S
N1992      C2000   1.380       .  A
C1993      C2001   1.388       .  A
C1993      C2009   1.429       .  A
C1994      C2010   1.429       .  A
C1994      C2002   1.388       .  A
C1995      C2003   1.389       .  A
C1995      C2012   1.424       .  A
C1996      C2011   1.425       .  A
C1996      C2004   1.389       .  A
C1997      C2009   1.455       .  A
C1997      C2005   1.379       .  A
C1998      C2012   1.447       .  A
C1998      C2006   1.386       .  A
C1999      C2007   1.380       .  A
C1999      C2010   1.453       .  A
C2000      C2008   1.385       .  A
C2000      C2011   1.445       .  A
C2001      H2013   1.082       .  S
C2002      H2014   1.082       .  S
C2003      H2015   1.082       .  S
C2004      H2016   1.082       .  S
C2005      H2017   1.078       .  S
C2006      H2018   1.082       .  S
C2007      H2019   1.078       .  S
C2008      H2020   1.082       .  S
C2009      C2197   1.560       .  S
C2010      C2107   1.559       .  S
C2011      C2093   1.538       .  S
C2012      C2183   1.542       .  S
N2023      C2027   1.378       .  A
N2023      C2024   1.362       .  A
N2023      C2078   1.400       .  S
C2024      C2025   1.333       .  A
C2025      C2026   1.388       .  A
C2025      H2028   1.052       .  S
C2026      C2027   1.385       .  A
C2026      H2029   1.080       .  S
C2027      C2258   1.568       .  S
N2030      C2034   1.380       .  A
N2030      C2031   1.387       .  A
N2030      C2046   1.418       .  S
C2031      C2032   1.371       .  A
C2032      C2033   1.367       .  A
C2032      H2035   1.082       .  S
C2033      C2034   1.372       .  A
C2033      H2036   1.042       .  S
C2034      C2259   1.564       .  S
O2037     Mg2039   2.127       .  S
C2038      H2077   1.079       .  S
C2038      O2051   1.264       .  A
C2038      O2075   1.273       .  A
Mg2039     O2836   2.133   1_545  S
Mg2039     O2083   2.183       .  S
Mg2039     O2847   2.187   1_545  S
Mg2039     O2818   2.273   1_545  S
O2040     Mg2850   2.115   1_545  S
O2040     Mg2065   2.110       .  S
O2040      C2829   1.232   1_545  S
O2041      C2072   1.271       .  A
O2041     Mg2065   2.309       .  S
C2042      N2106   1.414       .  S
C2042      O2044   1.271       .  A
C2042      O2056   1.252       .  A
O2043      C2071   1.270   1_545  A
O2044     Mg2076   2.223       .  S
Mg2045     O2047   2.313       .  S
Mg2045     O2051   2.139       .  S
C2046      O2084   1.255       .  A
C2046      O2052   1.272       .  A
O2047      C2054   1.272       .  A
H2048      C2829   1.069   1_545  S
C2049      O2064   1.263   1_455  A
O2050      C2073   1.264       .  A
O2050     Mg2807   2.273       .  S
O2051     Mg2065   2.185       .  S
O2052     Mg2082   2.307       .  S
C2053      N2099   1.401       .  S
C2053      O2066   1.266       .  A
C2053      O2058   1.248       .  A
C2054      N2092   1.420       .  S
C2054      O2081   1.256       .  A
Mg2055     O2062   2.098       .  S
Mg2055     O2056   2.214       .  S
O2057      C2061   1.272       .  A
O2058     Mg2065   2.202       .  S
O2059      C2078   1.264       .  A
O2060      C2080   1.270       .  A
O2060     Mg2076   2.264       .  S
C2061      H2816   1.069       .  S
C2061      O2808   1.232       .  S
O2062     Mg2076   2.133       .  S
O2062      C2073   1.233       .  S
O2063     Mg2082   2.059       .  S
O2064     Mg2076   2.260       .  S
Mg2065     O2081   2.191       .  S
O2066     Mg2850   2.181   1_545  S
O2068     Mg2807   2.133       .  S
O2068     Mg2076   2.107       .  S
O2068      C2839   1.233       .  S
H2069      C2839   1.077       .  S
H2070      C2073   1.078       .  S
C2071      H2837   1.077       .  S
C2071      O2836   1.233       .  S
O2075     Mg2850   2.336   1_545  S
C2078      O2083   1.253       .  A
O2079      C2080   1.260       .  A
O2079     Mg2807   2.187       .  S
C2080      N2085   1.413       .  S
Mg2082     O2808   2.114       .  S
Mg2082     O2834   2.181       .  S
Mg2082     O2843   2.335       .  S
N2085      C2089   1.362       .  A
N2085      C2086   1.368       .  A
C2086      C2087   1.384       .  A
C2086      C2225   1.539       .  S
C2087      C2088   1.377       .  A
C2087      H2090   1.068       .  S
C2088      C2089   1.341       .  A
C2088      H2091   1.069       .  S
N2092      C2096   1.383       .  A
N2092      C2093   1.375       .  A
C2093      C2094   1.365       .  A
C2094      C2095   1.388       .  A
C2094      H2097   1.061       .  S
C2095      C2096   1.378       .  A
C2095      H2098   1.082       .  S
C2096      C2291   1.551       .  S
N2099      C2103   1.378       .  A
N2099      C2100   1.365       .  A
C2100      C2101   1.334       .  A
C2100      C2224   1.536       .  S
C2101      C2102   1.377       .  A
C2101      H2104   1.037       .  S
C2102      C2103   1.376       .  A
C2102      H2105   1.082       .  S
N2106      C2110   1.370       .  A
N2106      C2107   1.392       .  A
C2107      C2108   1.382       .  A
C2108      C2109   1.384       .  A
C2108      H2111   1.082       .  S
C2109      C2110   1.341       .  A
C2109      H2112   1.036       .  S
C2110      C2294   1.539       .  S
N2113      C2117   1.361       .  A
N2113      C2114   1.379       .  A
N2113      C2136   1.400       .  S
C2114      C2115   1.384       .  A
C2114      C2257   1.567       .  S
C2115      C2116   1.387       .  A
C2115      H2118   1.080       .  S
C2116      C2117   1.333       .  A
C2116      H2119   1.050       .  S
N2120      C2124   1.385       .  A
N2120      C2121   1.379       .  A
N2120      C2168   1.417       .  S
C2121      C2122   1.372       .  A
C2121      C2260   1.563       .  S
C2122      C2123   1.368       .  A
C2122      H2125   1.044       .  S
C2123      C2124   1.372       .  A
C2123      H2126   1.082       .  S
O2127     Mg2129   2.114       .  S
C2128      H2167   1.078       .  S
C2128      O2141   1.233       .  S
C2128      O2165   1.264       .  A
Mg2129     O2926   2.116       .  S
Mg2129     O2173   2.311       .  S
Mg2129     O2937   2.170       .  S
Mg2129     O2908   2.333       .  S
O2130     Mg2940   2.129       .  S
O2130     Mg2155   2.102       .  S
O2130      C2919   1.233       .  S
O2131      C2162   1.261   1_655  A
O2131     Mg2155   2.269       .  S
C2132      N2182   1.421       .  S
C2132      O2134   1.256       .  A
C2132      O2146   1.271       .  A
O2133      C2161   1.275       .  A
O2134     Mg2166   2.197       .  S
Mg2135     O2141   2.098       .  S
Mg2135     O2137   2.212       .  S
C2136      O2174   1.264       .  A
C2136      O2142   1.252       .  A
O2137      C2144   1.252       .  A
H2138      C2919   1.077       .  S
C2139      O2154   1.272       .  A
O2140      C2163   1.273       .  A
O2140     Mg2897   2.333   1_545  S
O2141     Mg2155   2.148       .  S
O2142     Mg2172   2.180       .  S
C2143      N2189   1.414       .  S
C2143      O2156   1.260       .  A
C2143      O2148   1.270       .  A
C2144      N2196   1.412       .  S
C2144      O2171   1.271       .  A
Mg2145     O2146   2.311       .  S
Mg2145     O2152   2.147       .  S
O2147      C2151   1.270   1_545  A
O2148     Mg2155   2.262       .  S
O2149      C2168   1.256       .  A
O2150      C2170   1.248       .  A
O2150     Mg2166   2.203       .  S
C2151      H2906   1.077       .  S
C2151      O2898   1.233       .  S
O2152      C2163   1.265       .  A
O2152     Mg2166   2.185       .  S
O2153     Mg2172   2.129       .  S
O2154     Mg2166   2.309       .  S
Mg2155     O2171   2.216       .  S
O2156     Mg2940   2.192       .  S
O2158     Mg2897   2.116   1_545  S
O2158     Mg2166   2.111       .  S
O2158      C2929   1.233   1_545  S
H2159      C2929   1.070   1_545  S
H2160      C2163   1.079       .  S
C2161      H2927   1.070       .  S
C2161      O2926   1.234       .  S
O2165     Mg2940   2.276       .  S
C2168      O2173   1.272       .  A
O2169      C2170   1.266       .  A
O2169     Mg2897   2.170   1_545  S
C2170      N2175   1.400       .  S
Mg2172     O2898   2.129   1_545  S
Mg2172     O2924   2.192   1_545  S
Mg2172     O2933   2.276   1_545  S
N2175      C2179   1.377       .  A
N2175      C2176   1.364       .  A
C2176      C2177   1.334       .  A
C2176      C2223   1.535       .  S
C2177      C2178   1.379       .  A
C2177      H2180   1.038       .  S
C2178      C2179   1.377       .  A
C2178      H2181   1.082       .  S
N2182      C2186   1.384       .  A
N2182      C2183   1.377       .  A
C2183      C2184   1.365       .  A
C2184      C2185   1.389       .  A
C2184      H2187   1.061       .  S
C2185      C2186   1.378       .  A
C2185      H2188   1.082       .  S
C2186      C2292   1.554       .  S
N2189      C2193   1.362       .  A
N2189      C2190   1.368       .  A
C2190      C2191   1.384       .  A
C2190      C2226   1.538       .  S
C2191      C2192   1.377       .  A
C2191      H2194   1.068       .  S
C2192      C2193   1.341       .  A
C2192      H2195   1.070       .  S
N2196      C2200   1.369       .  A
N2196      C2197   1.390       .  A
C2197      C2198   1.383       .  A
C2198      C2199   1.385       .  A
C2198      H2201   1.082       .  S
C2199      C2200   1.340       .  A
C2199      H2202   1.037       .  S
C2200      C2293   1.538       .  S
N2203      C2208   1.353       .  A
N2203      C2207   1.353       .  A
N2203      H2235   1.043       .  S
N2204      C2979   1.364       .  A
N2204      C2212   1.375       .  A
N2205      C2210   1.347       .  A
N2205      C2209   1.347       .  A
N2205      H2236   1.042       .  S
N2206      C2981   1.363       .  A
N2206      C2214   1.375       .  A
C2207      C2215   1.389       .  A
C2207      C2223   1.417       .  A
C2208      C2224   1.416       .  A
C2208      C2216   1.388       .  A
C2209      C2217   1.384       .  A
C2209      C2226   1.410       .  A
C2210      C2225   1.410       .  A
C2210      C2218   1.385       .  A
C2211      N2972   1.364   1_545  A
C2211      C2223   1.444       .  A
C2211      C2219   1.379       .  A
C2212      C2226   1.456       .  A
C2212      C2220   1.377       .  A
C2213      N2974   1.363   1_545  A
C2213      C2221   1.380       .  A
C2213      C2224   1.445       .  A
C2214      C2222   1.378       .  A
C2214      C2225   1.457       .  A
C2215      C2216   1.378       .  A
C2215      H2227   1.080       .  S
C2216      H2228   1.080       .  S
C2217      C2218   1.383       .  A
C2217      H2229   1.077       .  S
C2218      H2230   1.077       .  S
C2219      C2988   1.388       .  A
C2219      H2231   1.080       .  S
C2220      C2987   1.388       .  A
C2220      H2232   1.074       .  S
C2221      C2990   1.388       .  A
C2221      H2233   1.081       .  S
C2222      C2989   1.388       .  A
C2222      H2234   1.075       .  S
N2237      C2242   1.356       .  A
N2237      H2269   1.043       .  S
N2238      C3013   1.383       .  A
N2238      C2246   1.386       .  A
N2239      C2243   1.355       .  A
N2239      H2270   1.041       .  S
N2240      C3015   1.382       .  A
N2240      C2248   1.385       .  A
C2241      C2249   1.390       .  A
C2241      C2257   1.426       .  A
C2242      C2258   1.426       .  A
C2242      C2250   1.389       .  A
C2243      C2251   1.391       .  A
C2243      C2260   1.439       .  A
C2244      C2259   1.438       .  A
C2244      C2252   1.390       .  A
C2245      N3006   1.383   1_545  A
C2245      C2257   1.467       .  A
C2245      C2253   1.379       .  A
C2246      C2260   1.457       .  A
C2246      C2254   1.386       .  A
C2247      N3008   1.382   1_545  A
C2247      C2255   1.380       .  A
C2247      C2258   1.467       .  A
C2248      C2256   1.387       .  A
C2248      C2259   1.457       .  A
C2249      H2261   1.081       .  S
C2250      H2262   1.081       .  S
C2251      H2263   1.080       .  S
C2252      H2264   1.080       .  S
C2253      C3022   1.379       .  A
C2253      H2265   1.078       .  S
C2254      C3021   1.379       .  A
C2254      H2266   1.083       .  S
C2255      C3024   1.379       .  A
C2255      H2267   1.078       .  S
C2256      C3023   1.379       .  A
C2256      H2268   1.083       .  S
N2271      C2276   1.358       .  A
N2271      C2275   1.358       .  A
N2271      H2303   1.042       .  S
N2272      C2279   1.378       .  A
N2272      C2280   1.380       .  A
N2273      C2278   1.352       .  A
N2273      C2277   1.352       .  A
N2273      H2304   1.042       .  S
N2274      C2281   1.378       .  A
N2274      C2282   1.380       .  A
C2275      C2283   1.389       .  A
C2275      C2291   1.425       .  A
C2276      C2292   1.425       .  A
C2276      C2284   1.389       .  A
C2277      C2285   1.388       .  A
C2277      C2294   1.413       .  A
C2278      C2293   1.413       .  A
C2278      C2286   1.388       .  A
C2279      C2291   1.450       .  A
C2279      C2287   1.376       .  A
C2280      C2294   1.444       .  A
C2280      C2288   1.384       .  A
C2281      C2289   1.376       .  A
C2281      C2292   1.450       .  A
C2282      C2290   1.384       .  A
C2282      C2293   1.445       .  A
C2283      C2284   1.383       .  A
C2283      H2295   1.083       .  S
C2284      H2296   1.083       .  S
C2285      C2286   1.385       .  A
C2285      H2297   1.082       .  S
C2286      H2298   1.082       .  S
C2287      C2288   1.383       .  A
C2287      H2299   1.076       .  S
C2288      H2300   1.080       .  S
C2289      C2290   1.383       .  A
C2289      H2301   1.076       .  S
C2290      H2302   1.081       .  S
N2305      C2310   1.360       .  A
N2305      C2309   1.360       .  A
N2305      H2337   1.039       .  S
N2306      C2314   1.373       .  A
N2307      C2312   1.342       .  A
N2307      C2311   1.341       .  A
N2307      H2338   1.042       .  S
N2308      C2316   1.374       .  A
C2309      C2317   1.387       .  A
C2309      C2325   1.435       .  A
C2310      C2326   1.434       .  A
C2310      C2318   1.387       .  A
C2311      C2319   1.374       .  A
C2311      C2328   1.395       .  A
C2312      C2327   1.395       .  A
C2312      C2320   1.374       .  A
C2313      C2325   1.437       .  A
C2313      C2321   1.378       .  A
C2314      C2328   1.436       .  A
C2314      C2322   1.387   1_655  A
C2315      C2323   1.377       .  A
C2315      C2326   1.437       .  A
C2316      C2324   1.388   1_655  A
C2316      C2327   1.436       .  A
C2317      C2318   1.379       .  A
C2317      H2329   1.083       .  S
C2318      H2330   1.083       .  S
C2319      C2320   1.372       .  A
C2319      H2331   1.064       .  S
C2320      H2332   1.063       .  S
C2321      H2333   1.082       .  S
C2322      H2334   1.083       .  S
C2323      H2335   1.082       .  S
C2324      H2336   1.083       .  S
C2325      C2415   1.553       .  S
C2326      C2508   1.551       .  S
C2327      C2501   1.519       .  S
C2328      C2408   1.518       .  S
N2339      C2728   1.329       .  A
N2339      C2343   1.328       .  A
N2339      H2371   1.042       .  S
N2340      C2347   1.378       .  A
N2340      C2348   1.377       .  A
N2341      C2730   1.358       .  A
N2341      C2345   1.358       .  A
N2341      H2372   1.043       .  S
N2342      C2349   1.378       .  A
N2342      C2350   1.377       .  A
C2343      C2351   1.390       .  A
C2343      C2359   1.391       .  A
C2344      N2723   1.329   1_554  A
C2344      C2360   1.390       .  A
C2344      C2352   1.389       .  A
C2345      C2353   1.389       .  A
C2345      C2362   1.431       .  A
C2346      N2725   1.358   1_554  A
C2346      C2361   1.431       .  A
C2346      C2354   1.390       .  A
C2347      C2359   1.445       .  A
C2347      C2355   1.387       .  A
C2348      C2362   1.445       .  A
C2348      C2356   1.377       .  A
C2349      C2357   1.387       .  A
C2349      C2360   1.445       .  A
C2350      C2358   1.376       .  A
C2350      C2361   1.445       .  A
C2351      C2736   1.379       .  A
C2351      H2363   1.081       .  S
C2352      C2735   1.379   1_554  A
C2352      H2364   1.081       .  S
C2353      C2738   1.385       .  A
C2353      H2365   1.082       .  S
C2354      C2737   1.385   1_554  A
C2354      H2366   1.082       .  S
C2355      C2356   1.368       .  A
C2355      H2367   1.083       .  S
C2356      H2368   1.080       .  S
C2357      C2358   1.368       .  A
C2357      H2369   1.083       .  S
C2358      H2370   1.080       .  S
C2359      C2577   1.483       .  S
C2360      C2473   1.485       .  S
C2361      C2487   1.548       .  S
C2362      C2563   1.548       .  S
N2373      C2762   1.360       .  A
N2373      C2377   1.359       .  A
N2373      H2405   1.042       .  S
N2374      C2382   1.381       .  A
N2375      C2764   1.353       .  A
N2375      C2379   1.355       .  A
N2375      H2406   1.040       .  S
N2376      C2384   1.380       .  A
C2377      C2385   1.388       .  A
C2377      C2393   1.429       .  A
C2378      N2757   1.360   1_554  A
C2378      C2394   1.429       .  A
C2378      C2386   1.388       .  A
C2379      C2387   1.389       .  A
C2379      C2396   1.424       .  A
C2380      N2759   1.353   1_554  A
C2380      C2395   1.425       .  A
C2380      C2388   1.389       .  A
C2381      C2393   1.455       .  A
C2381      C2389   1.379       .  A
C2382      C2396   1.447       .  A
C2382      C2390   1.386       .  A
C2383      C2391   1.380       .  A
C2383      C2394   1.453       .  A
C2384      C2392   1.385       .  A
C2384      C2395   1.445       .  A
C2385      C2770   1.382       .  A
C2385      H2397   1.082       .  S
C2386      C2769   1.382   1_554  A
C2386      H2398   1.082       .  S
C2387      C2772   1.391       .  A
C2387      H2399   1.082       .  S
C2388      C2771   1.391   1_554  A
C2388      H2400   1.082       .  S
C2389      H2401   1.078       .  S
C2390      H2402   1.082       .  S
C2391      H2403   1.078       .  S
C2392      H2404   1.082       .  S
C2393      C2581   1.560       .  S
C2394      C2491   1.559       .  S
C2395      C2477   1.538       .  S
C2396      C2567   1.542       .  S
N2407      C2411   1.378       .  A
N2407      C2408   1.362       .  A
N2407      C2462   1.400       .  S
C2408      C2409   1.333       .  A
C2409      C2410   1.388       .  A
C2409      H2412   1.052       .  S
C2410      C2411   1.385       .  A
C2410      H2413   1.080       .  S
C2411      C2642   1.568       .  S
N2414      C2418   1.380       .  A
N2414      C2415   1.387       .  A
N2414      C2430   1.418       .  S
C2415      C2416   1.371       .  A
C2416      C2417   1.367       .  A
C2416      H2419   1.082       .  S
C2417      C2418   1.372       .  A
C2417      H2420   1.042       .  S
C2418      C2643   1.564       .  S
O2421     Mg2423   2.127       .  S
C2422      H2461   1.079       .  S
C2422      O2435   1.264       .  A
C2422      O2459   1.273       .  A
Mg2423     O2467   2.183       .  S
O2424     Mg2449   2.110       .  S
O2425      C2456   1.271       .  A
O2425     Mg2449   2.309       .  S
C2426      N2490   1.414       .  S
C2426      O2428   1.271       .  A
C2426      O2440   1.252       .  A
O2427      C2455   1.270       .  A
O2428     Mg2460   2.223       .  S
Mg2429     O2431   2.313       .  S
Mg2429     O2435   2.139       .  S
C2430      O2468   1.255       .  A
C2430      O2436   1.272       .  A
O2431      C2438   1.272       .  A
C2433      O2448   1.263   1_455  A
O2434      C2457   1.264       .  A
O2435     Mg2449   2.185       .  S
O2436     Mg2466   2.307       .  S
C2437      N2483   1.401       .  S
C2437      O2450   1.266       .  A
C2437      O2442   1.248       .  A
C2438      N2476   1.420       .  S
C2438      O2465   1.256       .  A
Mg2439     O2446   2.098       .  S
Mg2439     O2440   2.214       .  S
O2441      C2445   1.272       .  A
O2442     Mg2449   2.202       .  S
O2443      C2462   1.264       .  A
O2444      C2464   1.270       .  A
O2444     Mg2460   2.264       .  S
O2446     Mg2460   2.133       .  S
O2446      C2457   1.233       .  S
O2447     Mg2466   2.059       .  S
O2448     Mg2460   2.260       .  S
Mg2449     O2465   2.191       .  S
O2452     Mg2460   2.107       .  S
H2454      C2457   1.078       .  S
C2462      O2467   1.253       .  A
O2463      C2464   1.260       .  A
C2464      N2469   1.413       .  S
N2469      C2473   1.362       .  A
N2469      C2470   1.368       .  A
C2470      C2471   1.384       .  A
C2470      C2609   1.539       .  S
C2471      C2472   1.377       .  A
C2471      H2474   1.068       .  S
C2472      C2473   1.341       .  A
C2472      H2475   1.069       .  S
N2476      C2480   1.383       .  A
N2476      C2477   1.375       .  A
C2477      C2478   1.365       .  A
C2478      C2479   1.388       .  A
C2478      H2481   1.061       .  S
C2479      C2480   1.378       .  A
C2479      H2482   1.082       .  S
C2480      C2675   1.551       .  S
N2483      C2487   1.378       .  A
N2483      C2484   1.365       .  A
C2484      C2485   1.334       .  A
C2484      C2608   1.536       .  S
C2485      C2486   1.377       .  A
C2485      H2488   1.037       .  S
C2486      C2487   1.376       .  A
C2486      H2489   1.082       .  S
N2490      C2494   1.370       .  A
N2490      C2491   1.392       .  A
C2491      C2492   1.382       .  A
C2492      C2493   1.384       .  A
C2492      H2495   1.082       .  S
C2493      C2494   1.341       .  A
C2493      H2496   1.036       .  S
C2494      C2678   1.539       .  S
N2497      C2501   1.361       .  A
N2497      C2498   1.379       .  A
N2497      C2520   1.400       .  S
C2498      C2499   1.384       .  A
C2498      C2641   1.567       .  S
C2499      C2500   1.387       .  A
C2499      H2502   1.080       .  S
C2500      C2501   1.333       .  A
C2500      H2503   1.050       .  S
N2504      C2508   1.385       .  A
N2504      C2505   1.379       .  A
N2504      C2552   1.417       .  S
C2505      C2506   1.372       .  A
C2505      C2644   1.563       .  S
C2506      C2507   1.368       .  A
C2506      H2509   1.044       .  S
C2507      C2508   1.372       .  A
C2507      H2510   1.082       .  S
O2511     Mg2513   2.114       .  S
C2512      H2551   1.078       .  S
C2512      O2525   1.233       .  S
C2512      O2549   1.264       .  A
Mg2513     O2557   2.311       .  S
O2514     Mg2539   2.102       .  S
O2515      C2546   1.261   1_655  A
O2515     Mg2539   2.269       .  S
C2516      N2566   1.421       .  S
C2516      O2518   1.256       .  A
C2516      O2530   1.271       .  A
O2517      C2545   1.275       .  A
O2518     Mg2550   2.197       .  S
Mg2519     O2525   2.098       .  S
Mg2519     O2521   2.212       .  S
C2520      O2558   1.264       .  A
C2520      O2526   1.252       .  A
O2521      C2528   1.252       .  A
C2523      O2538   1.272       .  A
O2524      C2547   1.273       .  A
O2525     Mg2539   2.148       .  S
O2526     Mg2556   2.180       .  S
C2527      N2573   1.414       .  S
C2527      O2540   1.260       .  A
C2527      O2532   1.270       .  A
C2528      N2580   1.412       .  S
C2528      O2555   1.271       .  A
Mg2529     O2530   2.311       .  S
Mg2529     O2536   2.147       .  S
O2531      C2535   1.270       .  A
O2532     Mg2539   2.263       .  S
O2533      C2552   1.256       .  A
O2534      C2554   1.248       .  A
O2534     Mg2550   2.203       .  S
O2536      C2547   1.265       .  A
O2536     Mg2550   2.185       .  S
O2537     Mg2556   2.129       .  S
O2538     Mg2550   2.309       .  S
Mg2539     O2555   2.216       .  S
O2542     Mg2550   2.111       .  S
H2544      C2547   1.079       .  S
C2552      O2557   1.272       .  A
O2553      C2554   1.266       .  A
C2554      N2559   1.400       .  S
N2559      C2563   1.377       .  A
N2559      C2560   1.364       .  A
C2560      C2561   1.334       .  A
C2560      C2607   1.535       .  S
C2561      C2562   1.379       .  A
C2561      H2564   1.038       .  S
C2562      C2563   1.377       .  A
C2562      H2565   1.082       .  S
N2566      C2570   1.384       .  A
N2566      C2567   1.377       .  A
C2567      C2568   1.365       .  A
C2568      C2569   1.389       .  A
C2568      H2571   1.061       .  S
C2569      C2570   1.378       .  A
C2569      H2572   1.082       .  S
C2570      C2676   1.554       .  S
N2573      C2577   1.362       .  A
N2573      C2574   1.368       .  A
C2574      C2575   1.384       .  A
C2574      C2610   1.538       .  S
C2575      C2576   1.377       .  A
C2575      H2578   1.068       .  S
C2576      C2577   1.341       .  A
C2576      H2579   1.070       .  S
N2580      C2584   1.369       .  A
N2580      C2581   1.390       .  A
C2581      C2582   1.383       .  A
C2582      C2583   1.385       .  A
C2582      H2585   1.082       .  S
C2583      C2584   1.340       .  A
C2583      H2586   1.037       .  S
C2584      C2677   1.538       .  S
N2587      C2592   1.353       .  A
N2587      C2591   1.353       .  A
N2587      H2619   1.043       .  S
N2588      C2596   1.375       .  A
N2589      C2594   1.347       .  A
N2589      C2593   1.347       .  A
N2589      H2620   1.042       .  S
N2590      C2598   1.375       .  A
C2591      C2599   1.389       .  A
C2591      C2607   1.417       .  A
C2592      C2608   1.416       .  A
C2592      C2600   1.388       .  A
C2593      C2601   1.384       .  A
C2593      C2610   1.410       .  A
C2594      C2609   1.410       .  A
C2594      C2602   1.385       .  A
C2595      C2607   1.444       .  A
C2595      C2603   1.379       .  A
C2596      C2610   1.456       .  A
C2596      C2604   1.377   1_565  A
C2597      C2605   1.380       .  A
C2597      C2608   1.445       .  A
C2598      C2606   1.378   1_565  A
C2598      C2609   1.457       .  A
C2599      C2600   1.378       .  A
C2599      H2611   1.080       .  S
C2600      H2612   1.080       .  S
C2601      C2602   1.383       .  A
C2601      H2613   1.077       .  S
C2602      H2614   1.077       .  S
C2603      H2615   1.080       .  S
C2604      H2616   1.074       .  S
C2605      H2617   1.081       .  S
C2606      H2618   1.075       .  S
N2621      C2626   1.356       .  A
N2621      C3009   1.356   1_554  A
N2621      H2653   1.043   1_554  S
N2622      C2630   1.386       .  A
N2623      C3012   1.356       .  A
N2623      C2627   1.355       .  A
N2623      H2654   1.041       .  S
N2624      C2632   1.385       .  A
C2625      N3005   1.356       .  A
C2625      C2633   1.390       .  A
C2625      C2641   1.426       .  A
C2626      C2642   1.426       .  A
C2626      C2634   1.389       .  A
C2627      C2635   1.391       .  A
C2627      C2644   1.439       .  A
C2628      N3007   1.356   1_554  A
C2628      C2643   1.438       .  A
C2628      C2636   1.390       .  A
C2629      C2641   1.467       .  A
C2629      C2637   1.379       .  A
C2630      C2644   1.457       .  A
C2630      C2638   1.386   1_565  A
C2631      C2639   1.380       .  A
C2631      C2642   1.467       .  A
C2632      C2640   1.387   1_565  A
C2632      C2643   1.457       .  A
C2633      C3018   1.383       .  A
C2633      H2645   1.081       .  S
C2634      C3017   1.383   1_554  A
C2634      H2646   1.081       .  S
C2635      C3020   1.398       .  A
C2635      H2647   1.080       .  S
C2636      C3019   1.398   1_554  A
C2636      H2648   1.080       .  S
C2637      H2649   1.078       .  S
C2638      H2650   1.083       .  S
C2639      H2651   1.078       .  S
C2640      H2652   1.083       .  S
N2655      C2660   1.358       .  A
N2655      C2659   1.358       .  A
N2655      H2687   1.042       .  S
N2656      C2663   1.378       .  A
N2656      C2664   1.380       .  A
N2657      C2662   1.352       .  A
N2657      C2661   1.352       .  A
N2657      H2688   1.042       .  S
N2658      C2665   1.378       .  A
N2658      C2666   1.380       .  A
C2659      C2667   1.389       .  A
C2659      C2675   1.425       .  A
C2660      C2676   1.425       .  A
C2660      C2668   1.389       .  A
C2661      C2669   1.388       .  A
C2661      C2678   1.413       .  A
C2662      C2677   1.413       .  A
C2662      C2670   1.388       .  A
C2663      C2675   1.450       .  A
C2663      C2671   1.376       .  A
C2664      C2678   1.444       .  A
C2664      C2672   1.384       .  A
C2665      C2673   1.376       .  A
C2665      C2676   1.450       .  A
C2666      C2674   1.384       .  A
C2666      C2677   1.445       .  A
C2667      C2668   1.383       .  A
C2667      H2679   1.083       .  S
C2668      H2680   1.083       .  S
C2669      C2670   1.385       .  A
C2669      H2681   1.082       .  S
C2670      H2682   1.082       .  S
C2671      C2672   1.383       .  A
C2671      H2683   1.076       .  S
C2672      H2684   1.080       .  S
C2673      C2674   1.383       .  A
C2673      H2685   1.076       .  S
C2674      H2686   1.081       .  S
N2689      C2694   1.360       .  A
N2689      C2693   1.360       .  A
N2689      H2721   1.039       .  S
N2690      C2698   1.373       .  A
N2691      C2696   1.342       .  A
N2691      C2695   1.341       .  A
N2691      H2722   1.042       .  S
N2692      C2700   1.374       .  A
C2693      C2701   1.387       .  A
C2693      C2709   1.435       .  A
C2694      C2710   1.434       .  A
C2694      C2702   1.387       .  A
C2695      C2703   1.374       .  A
C2695      C2712   1.395       .  A
C2696      C2711   1.395       .  A
C2696      C2704   1.374       .  A
C2697      C2709   1.437       .  A
C2697      C2705   1.378       .  A
C2698      C2712   1.436       .  A
C2698      C2706   1.387   1_655  A
C2699      C2707   1.377       .  A
C2699      C2710   1.437       .  A
C2700      C2708   1.388   1_655  A
C2700      C2711   1.436       .  A
C2701      C2702   1.379       .  A
C2701      H2713   1.083       .  S
C2702      H2714   1.083       .  S
C2703      C2704   1.372       .  A
C2703      H2715   1.064       .  S
C2704      H2716   1.064       .  S
C2705      H2717   1.082       .  S
C2706      H2718   1.083       .  S
C2707      H2719   1.082       .  S
C2708      H2720   1.083       .  S
C2709      C2799   1.553       .  S
C2710      C2892   1.551       .  S
C2711      C2885   1.519       .  S
C2712      C2792   1.518       .  S
N2723      C2727   1.328       .  A
N2723      H2755   1.042       .  S
N2724      C2731   1.378       .  A
N2724      C2732   1.377       .  A
N2725      C2729   1.358       .  A
N2725      H2756   1.043       .  S
N2726      C2733   1.378       .  A
N2726      C2734   1.377       .  A
C2727      C2735   1.390       .  A
C2727      C2743   1.391       .  A
C2728      C2744   1.390       .  A
C2728      C2736   1.389       .  A
C2729      C2737   1.389       .  A
C2729      C2746   1.431       .  A
C2730      C2745   1.432       .  A
C2730      C2738   1.390       .  A
C2731      C2743   1.445       .  A
C2731      C2739   1.387       .  A
C2732      C2746   1.445       .  A
C2732      C2740   1.377       .  A
C2733      C2741   1.387       .  A
C2733      C2744   1.445       .  A
C2734      C2742   1.376       .  A
C2734      C2745   1.445       .  A
C2735      H2747   1.081       .  S
C2736      H2748   1.081       .  S
C2737      H2749   1.082       .  S
C2738      H2750   1.082       .  S
C2739      C2740   1.368       .  A
C2739      H2751   1.083       .  S
C2740      H2752   1.080       .  S
C2741      C2742   1.368       .  A
C2741      H2753   1.083       .  S
C2742      H2754   1.080       .  S
C2743      C2961   1.483       .  S
C2744      C2857   1.485       .  S
C2745      C2871   1.548       .  S
C2746      C2947   1.548       .  S
N2757      C2761   1.359       .  A
N2757      H2789   1.042       .  S
N2758      C2766   1.381       .  A
N2759      C2763   1.355       .  A
N2759      H2790   1.040       .  S
N2760      C2768   1.380       .  A
C2761      C2769   1.388       .  A
C2761      C2777   1.429       .  A
C2762      C2778   1.429       .  A
C2762      C2770   1.388       .  A
C2763      C2771   1.389       .  A
C2763      C2780   1.424       .  A
C2764      C2779   1.425       .  A
C2764      C2772   1.389       .  A
C2765      C2777   1.455       .  A
C2765      C2773   1.379       .  A
C2766      C2780   1.447       .  A
C2766      C2774   1.386       .  A
C2767      C2775   1.380       .  A
C2767      C2778   1.453       .  A
C2768      C2776   1.385       .  A
C2768      C2779   1.445       .  A
C2769      H2781   1.082       .  S
C2770      H2782   1.082       .  S
C2771      H2783   1.082       .  S
C2772      H2784   1.082       .  S
C2773      H2785   1.078       .  S
C2774      H2786   1.082       .  S
C2775      H2787   1.078       .  S
C2776      H2788   1.082       .  S
C2777      C2965   1.560       .  S
C2778      C2875   1.559       .  S
C2779      C2861   1.538       .  S
C2780      C2951   1.542       .  S
N2791      C2795   1.378       .  A
N2791      C2792   1.362       .  A
N2791      C2846   1.400       .  S
C2792      C2793   1.333       .  A
C2793      C2794   1.388       .  A
C2793      H2796   1.052       .  S
C2794      C2795   1.385       .  A
C2794      H2797   1.080       .  S
C2795      C3026   1.568       .  S
N2798      C2802   1.380       .  A
N2798      C2799   1.387       .  A
N2798      C2814   1.418       .  S
C2799      C2800   1.371       .  A
C2800      C2801   1.367       .  A
C2800      H2803   1.082       .  S
C2801      C2802   1.372       .  A
C2801      H2804   1.042       .  S
C2802      C3027   1.564       .  S
O2805     Mg2807   2.127       .  S
C2806      H2845   1.079       .  S
C2806      O2819   1.264       .  A
C2806      O2843   1.273       .  A
Mg2807     O2851   2.183       .  S
O2808     Mg2833   2.110       .  S
O2809      C2840   1.271       .  A
O2809     Mg2833   2.309       .  S
C2810      N2874   1.414       .  S
C2810      O2812   1.271       .  A
C2810      O2824   1.252       .  A
O2811      C2839   1.270       .  A
O2812     Mg2844   2.223       .  S
Mg2813     O2815   2.313       .  S
Mg2813     O2819   2.139       .  S
C2814      O2852   1.255       .  A
C2814      O2820   1.272       .  A
O2815      C2822   1.272       .  A
C2817      O2832   1.263   1_455  A
O2818      C2841   1.264       .  A
O2819     Mg2833   2.185       .  S
O2820     Mg2850   2.307       .  S
C2821      N2867   1.401       .  S
C2821      O2834   1.266       .  A
C2821      O2826   1.248       .  A
C2822      N2860   1.420       .  S
C2822      O2849   1.256       .  A
Mg2823     O2830   2.098       .  S
Mg2823     O2824   2.214       .  S
O2825      C2829   1.272       .  A
O2826     Mg2833   2.203       .  S
O2827      C2846   1.264       .  A
O2828      C2848   1.270       .  A
O2828     Mg2844   2.264       .  S
O2830     Mg2844   2.133       .  S
O2830      C2841   1.233       .  S
O2831     Mg2850   2.059       .  S
O2832     Mg2844   2.260       .  S
Mg2833     O2849   2.191       .  S
O2836     Mg2844   2.107       .  S
H2838      C2841   1.078       .  S
C2846      O2851   1.252       .  A
O2847      C2848   1.260       .  A
C2848      N2853   1.413       .  S
N2853      C2857   1.362       .  A
N2853      C2854   1.368       .  A
C2854      C2855   1.384       .  A
C2854      C2993   1.539       .  S
C2855      C2856   1.377       .  A
C2855      H2858   1.068       .  S
C2856      C2857   1.341       .  A
C2856      H2859   1.069       .  S
N2860      C2864   1.383       .  A
N2860      C2861   1.375       .  A
C2861      C2862   1.365       .  A
C2862      C2863   1.388       .  A
C2862      H2865   1.061       .  S
C2863      C2864   1.378       .  A
C2863      H2866   1.082       .  S
C2864      C3059   1.551       .  S
N2867      C2871   1.378       .  A
N2867      C2868   1.365       .  A
C2868      C2869   1.334       .  A
C2868      C2992   1.536       .  S
C2869      C2870   1.377       .  A
C2869      H2872   1.037       .  S
C2870      C2871   1.376       .  A
C2870      H2873   1.082       .  S
N2874      C2878   1.370       .  A
N2874      C2875   1.392       .  A
C2875      C2876   1.382       .  A
C2876      C2877   1.384       .  A
C2876      H2879   1.082       .  S
C2877      C2878   1.341       .  A
C2877      H2880   1.036       .  S
C2878      C3062   1.539       .  S
N2881      C2885   1.361       .  A
N2881      C2882   1.379       .  A
N2881      C2904   1.400       .  S
C2882      C2883   1.384       .  A
C2882      C3025   1.567       .  S
C2883      C2884   1.387       .  A
C2883      H2886   1.080       .  S
C2884      C2885   1.333       .  A
C2884      H2887   1.050       .  S
N2888      C2892   1.385       .  A
N2888      C2889   1.379       .  A
N2888      C2936   1.418       .  S
C2889      C2890   1.372       .  A
C2889      C3028   1.563       .  S
C2890      C2891   1.368       .  A
C2890      H2893   1.043       .  S
C2891      C2892   1.372       .  A
C2891      H2894   1.082       .  S
O2895     Mg2897   2.114       .  S
C2896      H2935   1.078       .  S
C2896      O2909   1.233       .  S
C2896      O2933   1.264       .  A
Mg2897     O2941   2.311       .  S
O2898     Mg2923   2.103       .  S
O2899      C2930   1.261   1_655  A
O2899     Mg2923   2.269       .  S
C2900      N2950   1.421       .  S
C2900      O2902   1.256       .  A
C2900      O2914   1.271       .  A
O2901      C2929   1.275       .  A
O2902     Mg2934   2.197       .  S
Mg2903     O2909   2.098       .  S
Mg2903     O2905   2.212       .  S
C2904      O2942   1.264       .  A
C2904      O2910   1.252       .  A
O2905      C2912   1.252       .  A
C2907      O2922   1.272       .  A
O2908      C2931   1.273       .  A
O2909     Mg2923   2.147       .  S
O2910     Mg2940   2.180       .  S
C2911      N2957   1.414       .  S
C2911      O2924   1.260       .  A
C2911      O2916   1.270       .  A
C2912      N2964   1.412       .  S
C2912      O2939   1.271       .  A
Mg2913     O2914   2.310       .  S
Mg2913     O2920   2.147       .  S
O2915      C2919   1.270       .  A
O2916     Mg2923   2.262       .  S
O2917      C2936   1.256       .  A
O2918      C2938   1.248       .  A
O2918     Mg2934   2.203       .  S
O2920      C2931   1.265       .  A
O2920     Mg2934   2.185       .  S
O2921     Mg2940   2.129       .  S
O2922     Mg2934   2.309       .  S
Mg2923     O2939   2.217       .  S
O2926     Mg2934   2.110       .  S
H2928      C2931   1.079       .  S
C2936      O2941   1.272       .  A
O2937      C2938   1.266       .  A
C2938      N2943   1.400       .  S
N2943      C2947   1.377       .  A
N2943      C2944   1.364       .  A
C2944      C2945   1.334       .  A
C2944      C2991   1.535       .  S
C2945      C2946   1.379       .  A
C2945      H2948   1.038       .  S
C2946      C2947   1.377       .  A
C2946      H2949   1.082       .  S
N2950      C2954   1.384       .  A
N2950      C2951   1.377       .  A
C2951      C2952   1.365       .  A
C2952      C2953   1.389       .  A
C2952      H2955   1.061       .  S
C2953      C2954   1.378       .  A
C2953      H2956   1.082       .  S
C2954      C3060   1.554       .  S
N2957      C2961   1.362       .  A
N2957      C2958   1.368       .  A
C2958      C2959   1.384       .  A
C2958      C2994   1.538       .  S
C2959      C2960   1.377       .  A
C2959      H2962   1.068       .  S
C2960      C2961   1.341       .  A
C2960      H2963   1.070       .  S
N2964      C2968   1.369       .  A
N2964      C2965   1.390       .  A
C2965      C2966   1.383       .  A
C2966      C2967   1.385       .  A
C2966      H2969   1.082       .  S
C2967      C2968   1.340       .  A
C2967      H2970   1.037       .  S
C2968      C3061   1.538       .  S
N2971      C2976   1.353       .  A
N2971      C2975   1.353       .  A
N2971      H3003   1.043       .  S
N2972      C2980   1.375       .  A
N2973      C2978   1.347       .  A
N2973      C2977   1.347       .  A
N2973      H3004   1.042       .  S
N2974      C2982   1.374       .  A
C2975      C2983   1.389       .  A
C2975      C2991   1.417       .  A
C2976      C2992   1.416       .  A
C2976      C2984   1.388       .  A
C2977      C2985   1.384       .  A
C2977      C2994   1.409       .  A
C2978      C2993   1.410       .  A
C2978      C2986   1.385       .  A
C2979      C2991   1.444       .  A
C2979      C2987   1.379       .  A
C2980      C2994   1.456       .  A
C2980      C2988   1.377   1_565  A
C2981      C2989   1.380       .  A
C2981      C2992   1.445       .  A
C2982      C2990   1.378   1_565  A
C2982      C2993   1.457       .  A
C2983      C2984   1.378       .  A
C2983      H2995   1.080       .  S
C2984      H2996   1.080       .  S
C2985      C2986   1.383       .  A
C2985      H2997   1.077       .  S
C2986      H2998   1.077       .  S
C2987      H2999   1.080       .  S
C2988      H3000   1.074       .  S
C2989      H3001   1.081       .  S
C2990      H3002   1.075       .  S
N3005      C3010   1.356       .  A
N3005      H3037   1.043       .  S
N3006      C3014   1.386       .  A
N3007      C3011   1.355       .  A
N3007      H3038   1.041       .  S
N3008      C3016   1.385       .  A
C3009      C3017   1.390       .  A
C3009      C3025   1.426       .  A
C3010      C3026   1.426       .  A
C3010      C3018   1.389       .  A
C3011      C3019   1.391       .  A
C3011      C3028   1.439       .  A
C3012      C3027   1.438       .  A
C3012      C3020   1.390       .  A
C3013      C3025   1.467       .  A
C3013      C3021   1.379       .  A
C3014      C3028   1.457       .  A
C3014      C3022   1.386   1_565  A
C3015      C3023   1.380       .  A
C3015      C3026   1.467       .  A
C3016      C3024   1.387   1_565  A
C3016      C3027   1.457       .  A
C3017      H3029   1.081       .  S
C3018      H3030   1.081       .  S
C3019      H3031   1.080       .  S
C3020      H3032   1.080       .  S
C3021      H3033   1.078       .  S
C3022      H3034   1.083       .  S
C3023      H3035   1.078       .  S
C3024      H3036   1.083       .  S
N3039      C3044   1.358       .  A
N3039      C3043   1.358       .  A
N3039      H3071   1.042       .  S
N3040      C3047   1.378       .  A
N3040      C3048   1.380       .  A
N3041      C3046   1.352       .  A
N3041      C3045   1.352       .  A
N3041      H3072   1.042       .  S
N3042      C3049   1.378       .  A
N3042      C3050   1.380       .  A
C3043      C3051   1.389       .  A
C3043      C3059   1.425       .  A
C3044      C3060   1.425       .  A
C3044      C3052   1.389       .  A
C3045      C3053   1.388       .  A
C3045      C3062   1.413       .  A
C3046      C3061   1.413       .  A
C3046      C3054   1.388       .  A
C3047      C3059   1.449       .  A
C3047      C3055   1.376       .  A
C3048      C3062   1.444       .  A
C3048      C3056   1.384       .  A
C3049      C3057   1.376       .  A
C3049      C3060   1.450       .  A
C3050      C3058   1.384       .  A
C3050      C3061   1.445       .  A
C3051      C3052   1.383       .  A
C3051      H3063   1.083       .  S
C3052      H3064   1.083       .  S
C3053      C3054   1.385       .  A
C3053      H3065   1.082       .  S
C3054      H3066   1.082       .  S
C3055      C3056   1.383       .  A
C3055      H3067   1.076       .  S
C3056      H3068   1.080       .  S
C3057      C3058   1.383       .  A
C3057      H3069   1.076       .  S
C3058      H3070   1.081       .  S
