geometry optimzed in LAMMPS
_audit_creation_date              2020-11-30 
_audit_creation_method            'lammps2cif' 
_symmetry_space_group_name_H-M    'P1' 
_symmetry_Int_Tables_number       1 
_symmetry_cell_setting            triclinic 
loop_ 
_symmetry_equiv_pos_as_xyz 
  x,y,z 
_cell_length_a                    50.6722416 
_cell_length_b                    50.87719972959551 
_cell_length_c                    37.40150568946254 
_cell_angle_alpha                 90.20204522962176 
_cell_angle_beta                  89.9351349969362 
_cell_angle_gamma                 120.49394173434791 
loop_ 
_atom_site_label 
_atom_site_type_symbol 
_atom_site_fract_x 
_atom_site_fract_y 
_atom_site_fract_z 
_atom_site_charge 
N1          N  0.31482471  0.40786502  0.09855946    -0.36100
N2          N  0.29047985  0.35369384  0.14309053    -0.56700
N3          N  0.25835997  0.37982900  0.18398683    -0.36100
N4          N  0.29036381  0.43783617  0.14317575    -0.56700
C5          C  0.33017189  0.39408279  0.08700886     0.27500
C6          C  0.33004142  0.43709351  0.08707658     0.27500
C7          C  0.25338331  0.35582009  0.20457977     0.27500
C8          C  0.25342325  0.39889117  0.20468651     0.27500
C9          C  0.29370847  0.34377067  0.11067294     0.36100
C10         C  0.26687565  0.32936425  0.15915880     0.36100
C11         C  0.29353881  0.45076808  0.11073376     0.36100
C12         C  0.26727380  0.43906719  0.15965331     0.36100
C13         C  0.35631900  0.41523987  0.06906621    -0.21400
C14         C  0.35623886  0.44244545  0.06911648    -0.21400
C15         C  0.24434176  0.35938309  0.23838468    -0.21400
C16         C  0.24424398  0.38629208  0.23838187    -0.21400
C17         C  0.27102135  0.31372743  0.10553257    -0.22400
C18         C  0.25479865  0.30410361  0.13704873    -0.22400
C19         C  0.27127125  0.45851577  0.10597702    -0.22400
C20         C  0.25548644  0.45243653  0.13778772    -0.22400
C21         C  0.31732298  0.36191801  0.08637143    -0.17800
C22         C  0.31699687  0.45605438  0.08630584    -0.17800
C23         C  0.25568744  0.42660725  0.19344118    -0.17800
C24         C  0.25537406  0.33020192  0.19301579    -0.17800
H25         H  0.37282419  0.41103334  0.05586971     0.15100
H26         H  0.37264887  0.46331601  0.05593252     0.15100
H27         H  0.23871783  0.34459352  0.26127689     0.15100
H28         H  0.23845332  0.39549927  0.26116698     0.15100
H29         H  0.26635666  0.30038632  0.08134439     0.13400
H30         H  0.23521438  0.28178343  0.14231921     0.13400
H31         H  0.26673729  0.46733153  0.08195961     0.13400
H32         H  0.23637447  0.45565149  0.14341944     0.13400
H33         H  0.29232579  0.39649884  0.10767146     0.26700
H34         H  0.26296955  0.38209694  0.15676152     0.26700
N35         N  0.31343996  0.40684399  0.44536032    -0.36100
N36         N  0.29828871  0.44074261  0.39663863    -0.56700
N37         N  0.28146213  0.39097710  0.34769241    -0.36100
N38         N  0.29604002  0.35816011  0.39796128    -0.56700
C39         C  0.32830556  0.43571873  0.45781718     0.27500
C40         C  0.32774703  0.39265721  0.45836337     0.27500
C41         C  0.28578855  0.41469911  0.32746104     0.27500
C42         C  0.28770994  0.37297082  0.32728080     0.27500
C43         C  0.29501272  0.45006903  0.42899425     0.36100
C44         C  0.27741303  0.44138573  0.37527627     0.36100
C45         C  0.29516587  0.34428883  0.42869842     0.36100
C46         C  0.27935418  0.33639314  0.37405154     0.36100
C47         C  0.35330659  0.44051110  0.47793943    -0.21400
C48         C  0.35295800  0.41314068  0.47826631    -0.21400
C49         C  0.29615779  0.41257226  0.29395190    -0.21400
C50         C  0.29732048  0.38594566  0.29379533    -0.21400
C51         C  0.27043423  0.45477249  0.42909429    -0.22400
C52         C  0.25995012  0.45056832  0.39414898    -0.22400
C53         C  0.27659913  0.31295488  0.42510428    -0.22400
C54         C  0.26680011  0.30782756  0.38984461    -0.22400
C55         C  0.31542747  0.45465503  0.45672078    -0.17800
C56         C  0.31494013  0.36067142  0.45690697    -0.17800
C57         C  0.28031132  0.34348878  0.33772743    -0.17800
C58         C  0.27676028  0.43534413  0.33879072    -0.17800
H59         H  0.37011503  0.46156735  0.99275841     0.15100
H60         H  0.36943598  0.40881323  0.99286458     0.15100
H61         H  0.30123549  0.42787932  0.27162941     0.15100
H62         H  0.30331484  0.37665339  0.27122604     0.15100
H63         H  0.26106268  0.46042048  0.45184292     0.13400
H64         H  0.24132474  0.45309379  0.38416971     0.13400
H65         H  0.27248065  0.29575706  0.44480835     0.13400
H66         H  0.25333980  0.28578174  0.37714664     0.13400
H67         H  0.29158055  0.39599643  0.43405049     0.26700
H68         H  0.27046699  0.38514320  0.37248227     0.26700
N69         N  0.39464444  0.07400613  0.44329383    -0.36100
N70         N  0.42361196  0.12657798  0.40058042    -0.56700
N71         N  0.37094275  0.09787419  0.35272578    -0.36100
N72         N  0.34050482  0.04354256  0.39777379    -0.56700
C73         C  0.42391850  0.08792600  0.45498614     0.27500
C74         C  0.38090567  0.04454461  0.45343250     0.27500
C75         C  0.38841119  0.12519096  0.33655953     0.27500
C76         C  0.34233428  0.08498547  0.33866374     0.27500
C77         C  0.43998660  0.13825326  0.43064567     0.36100
C78         C  0.43070807  0.15014621  0.37904345     0.36100
C79         C  0.33034597  0.02975024  0.42988387     0.36100
C80         C  0.31601148  0.04114934  0.38033674     0.36100
C81         C  0.42927985  0.06682203  0.47164169    -0.21400
C82         C  0.40200939  0.03929724  0.47064280    -0.21400
C83         C  0.37085600  0.13033195  0.31261114    -0.21400
C84         C  0.34182037  0.10547393  0.31432648    -0.21400
C85         C  0.45636536  0.16985677  0.42923979    -0.22400
C86         C  0.45108070  0.17743298  0.39571197    -0.22400
C87         C  0.29977684  0.02036631  0.43376612    -0.22400
C88         C  0.29034727  0.02601944  0.40158784    -0.22400
C89         C  0.44377167  0.11991776  0.45550359    -0.17800
C90         C  0.34879273  0.02528411  0.45470590    -0.17800
C91         C  0.31692950  0.05554495  0.34757011    -0.17800
C92         C  0.41929600  0.14665872  0.34438993    -0.17800
H93         H  0.44933758  0.07008076  0.98385145     0.15100
H94         H  0.39640276  0.01749581  0.98283798     0.15100
H95         H  0.37782011  0.15061558  0.29686974     0.15100
H96         H  0.32264195  0.10430423  0.30035901     0.15100
H97         H  0.47228855  0.18550367  0.44890653     0.13400
H98         H  0.46111856  0.20020539  0.38484825     0.13400
H99         H  0.28619961  0.51126854  0.45698411     0.13400
H100        H  0.26771225  0.02118117  0.39520117     0.13400
H101        H  0.38312820  0.08507292  0.43498739     0.26700
H102        H  0.37910549  0.08769107  0.36993775     0.26700
N103        N  0.40150372  0.07268204  0.09896127    -0.36100
N104        N  0.43371106  0.12653749  0.14473377    -0.56700
N105        N  0.38047284  0.09471470  0.19086558    -0.36100
N106        N  0.35004530  0.03953543  0.14603883    -0.56700
C107        C  0.43006941  0.08767682  0.08524034     0.27500
C108        C  0.38683516  0.04423080  0.08491932     0.27500
C109        C  0.40180830  0.11722541  0.21150938     0.27500
C110        C  0.36059780  0.07240394  0.21284510     0.27500
C111        C  0.44347523  0.13696206  0.11138404     0.36100
C112        C  0.43315419  0.14928427  0.16279518     0.36100
C113        C  0.33823001  0.02932571  0.11327978     0.36100
C114        C  0.32766062  0.03952948  0.16542902     0.36100
C115        C  0.43431338  0.06785602  0.06369145    -0.21400
C116        C  0.40685441  0.04037300  0.06335164    -0.21400
C117        C  0.39646694  0.10846638  0.24692643    -0.21400
C118        C  0.37016790  0.08015584  0.24792713    -0.21400
C119        C  0.44768757  0.16590532  0.10770598    -0.22400
C120        C  0.44227636  0.17427299  0.14093222    -0.22400
C121        C  0.30880291  0.02422514  0.11124861    -0.22400
C122        C  0.30144954  0.02938703  0.14500702    -0.22400
C123        C  0.44841341  0.11993375  0.08511518    -0.17800
C124        C  0.35460964  0.02505820  0.08590132    -0.17800
C125        C  0.33180992  0.04882182  0.20127461    -0.17800
C126        C  0.42317054  0.14636678  0.19841393    -0.17800
H127        H  0.45430017  0.07339057  0.04778919     0.15100
H128        H  0.40159093  0.02054594  0.04736848     0.15100
H129        H  0.40976939  0.12130983  0.26960313     0.15100
H130        H  0.35899270  0.06734994  0.27175343     0.15100
H131        H  0.45382107  0.17941230  0.08358222     0.13400
H132        H  0.44338549  0.19549410  0.14772980     0.13400
H133        H  0.29417876  0.51848151  0.08692224     0.13400
H134        H  0.27998450  0.02747651  0.15274698     0.13400
H135        H  0.39075472  0.08309397  0.11130753     0.26700
H136        H  0.37690190  0.09667425  0.16383010     0.26700
C137        C  0.33834141  0.00612559  0.05391100     0.02800
C138        C  0.32221987  0.47527709  0.05374666     0.02800
C139        C  0.31184069  0.45962148  0.02121916    -0.17800
C140        C  0.31929530  0.47403036  0.48831550     0.02800
C141        C  0.33559986  0.00633279  0.48783178     0.02800
C142        C  0.34326020  0.02155032  0.02114421    -0.17800
H143        H  0.35663592  0.04628670  0.02111878     0.04800
H144        H  0.29946521  0.43485947  0.02150283     0.04800
N145        N  0.39835887  0.32645501  0.44331326    -0.36100
N146        N  0.32649987  0.28631331  0.40867312    -0.56700
N147        N  0.36647063  0.26982918  0.35811250    -0.36100
N148        N  0.42998274  0.30674497  0.39849215    -0.57300
C149        C  0.38380226  0.34039521  0.45599865     0.27500
C150        C  0.42680435  0.34071188  0.45773449     0.27500
C151        C  0.33768410  0.25358354  0.34437926     0.27500
C152        C  0.38412714  0.26038658  0.34178214     0.27500
C153        C  0.33794780  0.31566314  0.41988257     0.36100
C154        C  0.32113413  0.28607389  0.37284856     0.36100
C155        C  0.44122711  0.30664397  0.43115642     0.36100
C156        C  0.42813994  0.28273699  0.38128695     0.36100
C157        C  0.40342377  0.36476551  0.47748002    -0.21400
C158        C  0.43083411  0.36508773  0.47842283    -0.21400
C159        C  0.33678554  0.23191851  0.32076815    -0.21400
C160        C  0.36611508  0.23667593  0.31860543    -0.21400
C161        C  0.34332153  0.33418297  0.39050387    -0.22400
C162        C  0.33162364  0.31544246  0.36108091    -0.22400
C163        C  0.44515038  0.28187029  0.43507312    -0.22400
C164        C  0.43773573  0.26706488  0.40266047    -0.22400
C165        C  0.35195736  0.32757003  0.45348932    -0.17800
C166        C  0.44606325  0.32813171  0.45752896    -0.17800
C167        C  0.41614314  0.27360765  0.34721630    -0.17800
C168        C  0.31471892  0.26184728  0.34883547    -0.17800
H169        H  0.39888264  0.38031381  0.99218530     0.15100
H170        H  0.45147948  0.38044497  0.99415776     0.15100
H171        H  0.31755033  0.21472301  0.30571409     0.15100
H172        H  0.37306545  0.22393479  0.30179074     0.15100
H173        H  0.35506477  0.35885517  0.39041859     0.13400
H174        H  0.33330557  0.32280414  0.33365930     0.13400
H175        H  0.45130097  0.27456062  0.45917339     0.13400
H176        H  0.43759156  0.24624488  0.39612367     0.13400
H177        H  0.38726735  0.30502954  0.43112436     0.26700
H178        H  0.37468058  0.28890278  0.37465771     0.26700
N179        N  0.39924651  0.32465592  0.09886659    -0.36100
N180        N  0.43068502  0.30258207  0.14575698    -0.56700
N181        N  0.37747637  0.28039007  0.19050412    -0.36100
N182        N  0.34814874  0.30608672  0.14458897    -0.56700
C183        C  0.42866130  0.33947025  0.08805228     0.27500
C184        C  0.38580263  0.33976979  0.08581460     0.27500
C185        C  0.39818258  0.27867325  0.21166628     0.27500
C186        C  0.35676000  0.28180053  0.21198887     0.27500
C187        C  0.44136620  0.30291500  0.11271773     0.36100
C188        C  0.43083819  0.27963589  0.16355391     0.36100
C189        C  0.33647306  0.30603126  0.11213547     0.36100
C190        C  0.32525857  0.28370828  0.16359505     0.36100
C191        C  0.43454660  0.36537848  0.06932225    -0.21400
C192        C  0.40731051  0.36550240  0.06781510    -0.21400
C193        C  0.39117218  0.28004038  0.24705914    -0.21400
C194        C  0.36484714  0.28178420  0.24739909    -0.21400
C195        C  0.44691395  0.27905758  0.10882238    -0.22400
C196        C  0.44138623  0.26492296  0.14181039    -0.22400
C197        C  0.30645254  0.28259108  0.10985625    -0.22400
C198        C  0.29878541  0.26915145  0.14316780    -0.22400
C199        C  0.44679171  0.32560172  0.08746111    -0.17800
C200        C  0.35372696  0.32725068  0.08537434    -0.17800
C201        C  0.32871118  0.27805794  0.19956598    -0.17800
C202        C  0.42074726  0.27241796  0.19901560    -0.17800
H203        H  0.45576611  0.38141605  0.05638900     0.15100
H204        H  0.40343434  0.38188672  0.05406229     0.15100
H205        H  0.40349333  0.27932364  0.27007589     0.15100
H206        H  0.35272148  0.28210588  0.27102520     0.15100
H207        H  0.45438567  0.27274959  0.08485782     0.13400
H208        H  0.44359223  0.24546742  0.14855217     0.13400
H209        H  0.29197968  0.27541938  0.08641984     0.13400
H210        H  0.27677755  0.25003953  0.15067898     0.13400
H211        H  0.38765209  0.30241394  0.10869339     0.26700
H212        H  0.37508840  0.27642630  0.16299395     0.26700
N213        N  0.06415640  0.40658840  0.09938081    -0.36100
N214        N  0.02910339  0.35718336  0.14842076    -0.56700
N215        N  0.08372417  0.38773679  0.19454755    -0.36100
N216        N  0.11677090  0.43895865  0.14595908    -0.56700
C217        C  0.03546892  0.39220557  0.08597792     0.27500
C218        C  0.07879603  0.43519158  0.08627888     0.27500
C219        C  0.06088255  0.36893889  0.21699427     0.27500
C220        C  0.10671177  0.40937700  0.21461108     0.27500
C221        C  0.01928446  0.34441669  0.11579617     0.36100
C222        C  0.02756727  0.33521077  0.16987459     0.36100
C223        C  0.12816523  0.44978355  0.11312441     0.36100
C224        C  0.13966253  0.43977402  0.16531958     0.36100
C225        C  0.03115404  0.41225731  0.06540655    -0.21400
C226        C  0.05859418  0.43961440  0.06577916    -0.21400
C227        C  0.06904688  0.37946150  0.25172942    -0.21400
C228        C  0.09782774  0.40529704  0.25003266    -0.21400
C229        C  0.51325283  0.31481838  0.11618990    -0.22400
C230        C  0.01701157  0.30832101  0.15055910    -0.22400
C231        C  0.15813863  0.45624048  0.11101885    -0.22400
C232        C  0.16586414  0.45098384  0.14471068    -0.22400
C233        C  0.01623730  0.36028680  0.08687056    -0.17800
C234        C  0.11102124  0.45386993  0.08615873    -0.17800
C235        C  0.13622349  0.43041291  0.20137024    -0.17800
C236        C  0.03593175  0.34031598  0.20640362    -0.17800
H237        H  0.01092898  0.40719095  0.05033498     0.15100
H238        H  0.06375325  0.45978572  0.05081646     0.15100
H239        H  0.05604137  0.36933068  0.27581620     0.15100
H240        H  0.11089208  0.41936628  0.27226255     0.15100
H241        H  0.50660793  0.29941913  0.09361246     0.13400
H242        H  0.51334592  0.28673791  0.16023791     0.13400
H243        H  0.17278977  0.46389233  0.08771754     0.13400
H244        H  0.18771381  0.45397713  0.15275985     0.13400
H245        H  0.07474233  0.39571623  0.11106898     0.26700
H246        H  0.08543410  0.38350840  0.16758169     0.26700
N247        N  0.06442304  0.40510505  0.44415060    -0.36100
N248        N  0.11655451  0.43941953  0.39840428    -0.56700
N249        N  0.09064831  0.37903197  0.35639542    -0.36100
N250        N  0.03514033  0.34881295  0.39979839    -0.56700
C251        C  0.07792159  0.43403661  0.45683369     0.27500
C252        C  0.03503644  0.39032511  0.45516673     0.27500
C253        C  0.11682214  0.39764881  0.33848087     0.27500
C254        C  0.07720608  0.35101399  0.34075022     0.27500
C255        C  0.12729994  0.44959482  0.43150185     0.36100
C256        C  0.13965666  0.43942780  0.38104025     0.36100
C257        C  0.02179049  0.33955070  0.43226487     0.36100
C258        C  0.03441792  0.32442454  0.38405352     0.36100
C259        C  0.05656716  0.43823048  0.47500370    -0.21400
C260        C  0.02933350  0.41059879  0.47377129    -0.21400
C261        C  0.12125201  0.38125001  0.31215514    -0.21400
C262        C  0.09662264  0.35193300  0.31363617    -0.21400
C263        C  0.15643941  0.45425830  0.43577558    -0.22400
C264        C  0.16486293  0.44877942  0.40291906    -0.22400
C265        C  0.51242933  0.31015366  0.43705868    -0.22400
C266        C  0.02053799  0.29950375  0.40657151    -0.22400
C267        C  0.11001814  0.45391150  0.45724368    -0.17800
C268        C  0.01660778  0.35813204  0.45630182    -0.17800
C269        C  0.04841996  0.32493117  0.35098574    -0.17800
C270        C  0.13719930  0.42875930  0.34646944    -0.17800
H271        H  0.05940597  0.45876780  0.98775171     0.15100
H272        H  0.00761830  0.40521653  0.98698826     0.15100
H273        H  0.14069013  0.38924807  0.29446112     0.15100
H274        H  0.09477444  0.33360759  0.29722066     0.15100
H275        H  0.16969169  0.46008483  0.46017964     0.13400
H276        H  0.18615489  0.44975235  0.39637937     0.13400
H277        H  0.50281927  0.29684417  0.46102893     0.13400
H278        H  0.51578548  0.27767802  0.40103135     0.13400
H279        H  0.07610878  0.39450560  0.43474149     0.26700
H280        H  0.08201460  0.38618515  0.37697991     0.26700
N281        N  0.14240867  0.06906932  0.09891988    -0.36100
N282        N  0.17035538  0.13111779  0.13957015    -0.56700
N283        N  0.17759055  0.08748032  0.19554868    -0.36100
N284        N  0.16223430  0.03757342  0.14660054    -0.56700
C285        C  0.12698003  0.08158137  0.08474611     0.27500
C286        C  0.13080126  0.04109252  0.08425017     0.27500
C287        C  0.18232243  0.11117523  0.21600073     0.27500
C288        C  0.18161293  0.06831941  0.21667748     0.27500
C289        C  0.14480695  0.12594120  0.12190300     0.36100
C290        C  0.16641857  0.13675662  0.17398464     0.36100
C291        C  0.16552355  0.02849914  0.11387827     0.36100
C292        C  0.18377685  0.03739391  0.16742312     0.36100
C293        C  0.10421167  0.06096892  0.06221109    -0.21400
C294        C  0.10659484  0.03517479  0.06193168    -0.21400
C295        C  0.18778006  0.10647303  0.25105710    -0.21400
C296        C  0.18684320  0.07915392  0.25160728    -0.21400
C297        C  0.12339146  0.12443320  0.14615454    -0.22400
C298        C  0.13757994  0.13269853  0.17890311    -0.22400
C299        C  0.18967060  0.02327194  0.11339123    -0.22400
C300        C  0.20066800  0.02779790  0.14784198    -0.22400
C301        C  0.13663883  0.11263024  0.08774005    -0.17800
C302        C  0.14588223  0.02428114  0.08539354    -0.17800
C303        C  0.18774586  0.04597624  0.20371402    -0.17800
C304        C  0.18485004  0.13798492  0.20256786    -0.17800
H305        H  0.08834827  0.06469175  0.04686068     0.15100
H306        H  0.09321268  0.01505967  0.04581362     0.15100
H307        H  0.19309994  0.12149356  0.27375951     0.15100
H308        H  0.19210053  0.06996855  0.27468931     0.15100
H309        H  0.09958102  0.11688837  0.14092650     0.13400
H310        H  0.12706397  0.13292261  0.20402799     0.13400
H311        H  0.19747994  0.51651496  0.09088867     0.13400
H312        H  0.21881304  0.52533579  0.15684366     0.13400
H313        H  0.16336202  0.08120404  0.11203919     0.26700
H314        H  0.17663362  0.08738727  0.16783904     0.26700
N315        N  0.14866518  0.07208782  0.44158225    -0.36100
N316        N  0.17772176  0.04606713  0.39894822    -0.56700
N317        N  0.20752756  0.10364229  0.35811877    -0.36100
N318        N  0.18325193  0.13684059  0.40801273    -0.56700
C319        C  0.13458210  0.04291204  0.45312981     0.27500
C320        C  0.13210287  0.08423834  0.45376331     0.27500
C321        C  0.22221740  0.08981040  0.34385107     0.27500
C322        C  0.22132467  0.13281840  0.34579476     0.27500
C323        C  0.17253988  0.03079888  0.43028113     0.36100
C324        C  0.19981354  0.04351745  0.38167101     0.36100
C325        C  0.15573455  0.13132006  0.42095940     0.36100
C326        C  0.18429875  0.14487609  0.37313504     0.36100
C327        C  0.10778995  0.03603697  0.47080470    -0.21400
C328        C  0.10632640  0.06234215  0.47136881    -0.21400
C329        C  0.24647367  0.11110323  0.32326541    -0.21400
C330        C  0.24612230  0.13802968  0.32478559    -0.21400
C331        C  0.19273435  0.02038353  0.43378075    -0.22400
C332        C  0.20876408  0.02695884  0.40222065    -0.22400
C333        C  0.13826968  0.13211611  0.39302895    -0.22400
C334        C  0.15676227  0.14228035  0.36336227    -0.22400
C335        C  0.14879420  0.02521456  0.45460810    -0.17800
C336        C  0.14216499  0.11551592  0.45299823    -0.17800
C337        C  0.20891861  0.15253087  0.34906674    -0.17800
C338        C  0.21489001  0.05887244  0.34986692    -0.17800
H339        H  0.09343253  0.01514939  0.98388510     0.15100
H340        H  0.09073409  0.06599272  0.98494595     0.15100
H341        H  0.26373583  0.10835522  0.30963105     0.15100
H342        H  0.26264159  0.15892002  0.31178322     0.15100
H343        H  0.19730555  0.51121168  0.45868723     0.13400
H344        H  0.22731274  0.52332029  0.39742281     0.13400
H345        H  0.11420406  0.12502160  0.39377443     0.13400
H346        H  0.14986542  0.14499566  0.33690501     0.13400
H347        H  0.17093115  0.08461501  0.43172175     0.26700
H348        H  0.18710353  0.09303163  0.37243483     0.26700
C349        C  0.13737393  0.12993585  0.05458592     0.02800
C350        C  0.12864934  0.15229311  0.05399870     0.02800
C351        C  0.12523894  0.16314298  0.02093759    -0.17800
C352        C  0.12746902  0.15121657  0.48725673     0.02800
C353        C  0.13839883  0.13045965  0.48656499     0.02800
C354        C  0.14521035  0.12180640  0.02145974    -0.17800
H355        H  0.15413488  0.10644349  0.02188142     0.04800
H356        H  0.11656646  0.17877496  0.02070621     0.04800
N357        N  0.06529582  0.15712869  0.44278819    -0.36100
N358        N  0.11925033  0.18585834  0.40268173    -0.56700
N359        N  0.09068835  0.21187770  0.35695255    -0.36100
N360        N  0.03508057  0.19180997  0.40629951    -0.56700
C361        C  0.08044678  0.14386445  0.45646558     0.27500
C362        C  0.03589145  0.14030558  0.45310342     0.27500
C363        C  0.11827442  0.22280572  0.34091704     0.27500
C364        C  0.07722617  0.22668903  0.34265244     0.27500
C365        C  0.13088467  0.17996260  0.43186590     0.36100
C366        C  0.14316901  0.20394418  0.38193699     0.36100
C367        C  0.01313720  0.16388613  0.41822760     0.36100
C368        C  0.02776382  0.19359492  0.37171108     0.36100
C369        C  0.06002318  0.11763999  0.47470159    -0.21400
C370        C  0.03180290  0.11555113  0.47284554    -0.21400
C371        C  0.12270509  0.24500088  0.31655054    -0.21400
C372        C  0.09736815  0.24812567  0.31826979    -0.21400
C373        C  0.16255147  0.19529378  0.43027903    -0.22400
C374        C  0.17032657  0.20976114  0.39776552    -0.22400
C375        C  0.49572149  0.14694612  0.38933830    -0.22400
C376        C  0.00266662  0.16617840  0.36121174    -0.22400
C377        C  0.11272521  0.15728438  0.45655910    -0.17800
C378        C  0.01461737  0.15018536  0.45034249    -0.17800
C379        C  0.04589060  0.21771672  0.34757375    -0.17800
C380        C  0.14067413  0.21496913  0.34882340    -0.17800
H381        H  0.06607514  0.10289806  0.99099308     0.15100
H382        H  0.01186209  0.09929816  0.98755321     0.15100
H383        H  0.14272062  0.25843296  0.30012245     0.15100
H384        H  0.09487773  0.26459919  0.30285355     0.15100
H385        H  0.17814563  0.19432939  0.44924963     0.13400
H386        H  0.19329349  0.22332745  0.38727694     0.13400
H387        H  0.47937207  0.12269167  0.38897441     0.13400
H388        H  0.49498408  0.16012373  0.33379534     0.13400
H389        H  0.07499958  0.17916107  0.43268014     0.26700
H390        H  0.08031370  0.19324329  0.37407965     0.26700
N391        N  0.06869779  0.16133823  0.09531453    -0.36100
N392        N  0.12102345  0.18593121  0.14090915    -0.56700
N393        N  0.08922149  0.20357673  0.18870927    -0.36100
N394        N  0.03503117  0.17811608  0.14179839    -0.56700
C395        C  0.08288531  0.14634450  0.08470956     0.27500
C396        C  0.03976975  0.14574176  0.08269745     0.27500
C397        C  0.11092802  0.20410418  0.20999083     0.27500
C398        C  0.06592518  0.19947324  0.20997210     0.27500
C399        C  0.13310891  0.18160724  0.11090379     0.36100
C400        C  0.14443445  0.20440409  0.16254822     0.36100
C401        C  0.02405674  0.17881219  0.10923640     0.36100
C402        C  0.03356724  0.19931578  0.16186635     0.36100
C403        C  0.06226820  0.11995476  0.06661109    -0.21400
C404        C  0.03490729  0.11969000  0.06513183    -0.21400
C405        C  0.10088342  0.19922367  0.24508177    -0.21400
C406        C  0.07248535  0.19650152  0.24520906    -0.21400
C407        C  0.16480375  0.19789002  0.11308075    -0.22400
C408        C  0.17202151  0.21222256  0.14618181    -0.22400
C409        C  0.51419694  0.19872244  0.10936044    -0.22400
C410        C  0.02179240  0.21395381  0.14195697    -0.22400
C411        C  0.11497456  0.15943113  0.08499242    -0.17800
C412        C  0.02046130  0.15810937  0.08203392    -0.17800
C413        C  0.04216295  0.20382957  0.19807231    -0.17800
C414        C  0.14005260  0.21070178  0.19813197    -0.17800
H415        H  0.06700451  0.10352852  0.05428087     0.15100
H416        H  0.01426203  0.10304949  0.05156062     0.15100
H417        H  0.11273512  0.19797337  0.26825326     0.15100
H418        H  0.05889655  0.19347057  0.26878515     0.15100
H419        H  0.18083036  0.19799347  0.09385935     0.13400
H420        H  0.19474910  0.22590653  0.15735685     0.13400
H421        H  0.50644457  0.20568572  0.08628849     0.13400
H422        H  0.51434956  0.22863952  0.15207150     0.13400
H423        H  0.07956749  0.18376852  0.10469688     0.26700
H424        H  0.09191287  0.20995978  0.16186584     0.26700
C425        C  0.49732363  0.14920790  0.48376613     0.02800
C426        C  0.46492405  0.13399198  0.48616775     0.02800
C427        C  0.45012815  0.12802360  0.02000518    -0.17800
C428        C  0.46658250  0.13477337  0.05213614     0.02800
C429        C  0.49897584  0.15042183  0.05071783     0.02800
C430        C  0.01505173  0.15963239  0.01608661    -0.17800
H431        H  0.03984276  0.17098575  0.01504910     0.04800
H432        H  0.42529406  0.11610592  0.02124833     0.04800
C433        C  0.14409657  0.00594436  0.05350726     0.02800
C434        C  0.12572760  0.47267285  0.05346825     0.02800
C435        C  0.11765213  0.45739192  0.02036821    -0.17800
C436        C  0.12524513  0.47305324  0.48931913     0.02800
C437        C  0.14283108  0.00578891  0.48738398     0.02800
C438        C  0.15387128  0.02146593  0.02068257    -0.17800
H439        H  0.16623516  0.04621916  0.02083905     0.04800
H440        H  0.10386557  0.43267499  0.02010775     0.04800
C441        C  0.46505997  0.33169343  0.48977724     0.02800
C442        C  0.49746410  0.34599284  0.48950040     0.02800
C443        C  0.01274167  0.35061845  0.02133548    -0.17800
C444        C  0.49781561  0.34473921  0.05486410     0.02800
C445        C  0.46539764  0.32979026  0.05488989     0.02800
C446        C  0.44967112  0.32216913  0.02211060    -0.17800
H447        H  0.42488829  0.31132407  0.02224592     0.04800
H448        H  0.03758665  0.36278490  0.02122575     0.04800
C449        C  0.33887021  0.33176787  0.05306586     0.02800
C450        C  0.32241216  0.34760510  0.05377710     0.02800
C451        C  0.31179720  0.35250291  0.02132781    -0.17800
C452        C  0.31917564  0.34513996  0.48793492     0.02800
C453        C  0.33544515  0.32925705  0.48641454     0.02800
C454        C  0.34416646  0.32213109  0.01958462    -0.17800
H455        H  0.35716776  0.31053501  0.01912595     0.04800
H456        H  0.29927650  0.36461334  0.02188517     0.04800
O457        O  0.29072926  0.32022857  0.28926619    -0.79600
O458        O  0.20251948  0.19200958  0.32242612    -0.79700
O459        O  0.19031874  0.24248166  0.32232570    -0.79700
O460        O  0.28756038  0.23669946  0.29378938    -0.79600
O461        O  0.15694830  0.19999392  0.29795364    -0.79700
O462        O  0.27374277  0.26586507  0.32069829    -0.79600
O463        O  0.23333280  0.18120587  0.29471949    -0.79600
O464        O  0.24307015  0.29751667  0.31098722    -0.79700
C465        C  0.27112617  0.31970034  0.31077272     1.10100
C466        C  0.21607807  0.17709886  0.32139793     1.09900
C467        C  0.16349469  0.21978568  0.32160094     1.10100
C468        C  0.29017282  0.25365254  0.32034569     1.10000
O469        O  0.30393940  0.28137563  0.25211735    -0.79600
O470        O  0.17537236  0.20236158  0.22891599    -0.79700
O471        O  0.22342339  0.29472297  0.23714065    -0.79600
O472        O  0.22326514  0.18802524  0.21912101    -0.79600
O473        O  0.18395320  0.16317163  0.25495549    -0.79700
O474        O  0.26540364  0.29563918  0.22525152    -0.79600
O475        O  0.27799275  0.24204093  0.21729956    -0.79600
O476        O  0.17202213  0.24147453  0.24634963    -0.79700
Co477      Co  0.26679000  0.27964225  0.27343652     1.51500
Co478      Co  0.19278193  0.20215806  0.27535248     1.51700
Co479      Co  0.20961021  0.26577451  0.27765744     1.51600
Co480      Co  0.25374898  0.21436099  0.25664966     1.51500
O481        O  0.23152509  0.23961410  0.26330809    -1.41600
C482        C  0.30232287  0.26667227  0.22407328     1.10000
C483        C  0.16449753  0.21934346  0.22492889     1.10100
C484        C  0.24713767  0.30474589  0.21860404     1.10000
C485        C  0.19779365  0.16436270  0.22643878     1.10000
O486        O  0.26697648  0.47070774  0.22781327    -0.79600
O487        O  0.19024539  0.02244412  0.25739852    -0.79700
O488        O  0.17049412  0.42953683  0.24548865    -0.79700
O489        O  0.28259134  0.03894700  0.21820233    -0.79600
O490        O  0.17617741  0.47264645  0.23222246    -0.79700
O491        O  0.30570958  0.02332920  0.25427503    -0.79600
O492        O  0.22860530  0.03866552  0.21954975    -0.79600
O493        O  0.22301847  0.43040741  0.23633187    -0.79700
C494        C  0.24770842  0.44380668  0.21939650     1.10100
C495        C  0.20283280  0.03500659  0.22792314     1.09900
C496        C  0.16272946  0.44481537  0.22665468     1.10100
C497        C  0.30545879  0.03641368  0.22569730     1.10000
O498        O  0.27353767  0.01035557  0.32203014    -0.79600
O499        O  0.15631971  0.46774467  0.30217476    -0.79700
O500        O  0.24056204  0.44583131  0.31139100    -0.79600
O501        O  0.23732064  0.05523212  0.29406169    -0.79600
O502        O  0.21375308  0.01366747  0.32510062    -0.79700
O503        O  0.28936981  0.47183961  0.29342326    -0.79600
O504        O  0.29017602  0.05312291  0.29364420    -0.79600
O505        O  0.18639589  0.45010827  0.31935532    -0.79700
Co506      Co  0.26685140  0.48880880  0.27507694     1.51500
Co507      Co  0.19537017  0.48950481  0.27933335     1.51700
Co508      Co  0.20857239  0.44578072  0.27620498     1.51600
Co509      Co  0.25797351  0.04291593  0.25647747     1.51500
O510        O  0.23360095  0.49523766  0.26073079    -1.41600
C511        C  0.29113100  0.03903917  0.32099702     1.10000
C512        C  0.16053315  0.44914707  0.32072436     1.10100
C513        C  0.26857350  0.45155303  0.31283470     1.10000
C514        C  0.22370812  0.04210696  0.32273274     1.10000
O515        O  0.46404379  0.18910731  0.22740235    -0.79600
O516        O  0.01148080  0.31430874  0.26176346    -0.79700
O517        O  0.42418996  0.23319368  0.23005137    -0.79700
O518        O  0.02662978  0.23838676  0.21780186    -0.79600
O519        O  0.45712818  0.28019159  0.24354302    -0.79700
O520        O  0.01566013  0.19957190  0.25194174    -0.79600
O521        O  0.02512222  0.29111515  0.22243703    -0.79600
O522        O  0.41961357  0.17865071  0.24267248    -0.79700
C523        C  0.43607513  0.17311394  0.22292056     1.10100
C524        C  0.02329487  0.31402939  0.23153404     1.09900
C525        C  0.43529574  0.26117566  0.22453169     1.10100
C526        C  0.02774602  0.21453534  0.22375428     1.10000
O527        O  0.00101450  0.21348238  0.32125251    -0.79600
O528        O  0.46203333  0.29519611  0.31258765    -0.79700
O529        O  0.43748457  0.19452754  0.31609481    -0.79600
O530        O  0.04332558  0.29832447  0.29570968    -0.79600
O531        O  0.00322131  0.27901534  0.32925441    -0.79700
O532        O  0.45575565  0.16533669  0.29686698    -0.79600
O533        O  0.04320709  0.24434015  0.29435133    -0.79600
O534        O  0.42918280  0.24531399  0.30700659    -0.79700
Co535      Co  0.47944038  0.20497835  0.27619199     1.51500
Co536      Co  0.47885078  0.27566095  0.28555520     1.51700
Co537      Co  0.43462575  0.21669224  0.27238857     1.51600
Co538      Co  0.03038221  0.26598176  0.25784712     1.51500
O539        O  0.48472966  0.24405613  0.26234957    -1.41600
C540        C  0.02954564  0.22653124  0.32053746     1.10000
C541        C  0.43673899  0.27144406  0.32083114     1.10100
C542        C  0.43803695  0.16954638  0.31744740     1.10000
C543        C  0.03133029  0.29837952  0.32529004     1.10000
N544        N  0.31382639  0.40635765  0.59831670    -0.36100
N545        N  0.28922514  0.35244380  0.64333078    -0.56700
N546        N  0.25853946  0.37958142  0.68476974    -0.36100
N547        N  0.29077594  0.43713134  0.64331613    -0.56700
C548        C  0.32878040  0.39214780  0.58685832     0.27500
C549        C  0.32943922  0.43554227  0.58665635     0.27500
C550        C  0.25304394  0.35539262  0.70534998     0.27500
C551        C  0.25396406  0.39892092  0.70539437     0.27500
C552        C  0.29224235  0.34205389  0.61113218     0.36100
C553        C  0.26592180  0.32830515  0.66000379     0.36100
C554        C  0.29433910  0.45069203  0.61122689     0.36100
C555        C  0.26850585  0.43939338  0.66038135     0.36100
C556        C  0.35497793  0.41293190  0.56870981    -0.21400
C557        C  0.35537797  0.44036290  0.56854690    -0.21400
C558        C  0.24395308  0.35907805  0.73907587    -0.21400
C559        C  0.24443955  0.38629274  0.73904954    -0.21400
C560        C  0.26974101  0.31183813  0.60676718    -0.22400
C561        C  0.25388845  0.30264264  0.63855646    -0.22400
C562        C  0.27318761  0.45999313  0.60733168    -0.22400
C563        C  0.25777174  0.45421202  0.63932503    -0.22400
C564        C  0.31558529  0.35994253  0.58641354    -0.17800
C565        C  0.31716414  0.45517859  0.58630314    -0.17800
C566        C  0.25682156  0.42691423  0.69411178    -0.17800
C567        C  0.25473890  0.32957753  0.69388627    -0.17800
H568        H  0.37121293  0.40832882  0.55552911     0.15100
H569        H  0.37201634  0.46108659  0.55529028     0.15100
H570        H  0.23795155  0.34417107  0.76191542     0.15100
H571        H  0.23884044  0.39568794  0.76181170     0.15100
H572        H  0.26490197  0.29812337  0.58288083     0.13400
H573        H  0.23453930  0.28031963  0.64442146     0.13400
H574        H  0.26904211  0.46951393  0.58368470     0.13400
H575        H  0.23949642  0.45858304  0.64557780     0.13400
H576        H  0.29137277  0.39533212  0.60755077     0.26700
H577        H  0.26328675  0.38183398  0.65760013     0.26700
N578        N  0.31470132  0.40770052  0.94523542    -0.36100
N579        N  0.30075699  0.44230283  0.89610306    -0.56700
N580        N  0.28356350  0.39237901  0.84728102    -0.36100
N581        N  0.29684579  0.35887974  0.89796347    -0.56700
C582        C  0.32954994  0.43647267  0.95796000     0.27500
C583        C  0.32884086  0.39337260  0.95827105     0.27500
C584        C  0.28805260  0.41602820  0.82677505     0.27500
C585        C  0.28880851  0.37363202  0.82691649     0.27500
C586        C  0.29712788  0.45150096  0.92838297     0.36100
C587        C  0.28030971  0.44340440  0.87442299     0.36100
C588        C  0.29592622  0.34502430  0.92874288     0.36100
C589        C  0.27987629  0.33711792  0.87418254     0.36100
C590        C  0.35434369  0.44107548  0.97834364    -0.21400
C591        C  0.35394600  0.41368926  0.97845481    -0.21400
C592        C  0.29756658  0.41311446  0.79305690    -0.21400
C593        C  0.29800093  0.38607946  0.79311252    -0.21400
C594        C  0.27292559  0.45674807  0.92801588    -0.22400
C595        C  0.26294428  0.45289882  0.89294053    -0.22400
C596        C  0.27708362  0.31371751  0.92530183    -0.22400
C597        C  0.26709843  0.30858090  0.89011685    -0.22400
C598        C  0.31686447  0.45553163  0.95660709    -0.17800
C599        C  0.31582927  0.36137663  0.95687285    -0.17800
C600        C  0.28087540  0.34404104  0.83778463    -0.17800
C601        C  0.27956529  0.43712945  0.83803297    -0.17800
H602        H  0.36914383  0.46109972  0.49214980     0.15100
H603        H  0.36862408  0.40843067  0.49253620     0.15100
H604        H  0.30243408  0.42812921  0.77047144     0.15100
H605        H  0.30315923  0.37614852  0.77047800     0.15100
H606        H  0.26345335  0.46249061  0.95058335     0.13400
H607        H  0.24460895  0.45576413  0.88266539     0.13400
H608        H  0.27286294  0.29652486  0.94505640     0.13400
H609        H  0.25339853  0.28652182  0.87752719     0.13400
H610        H  0.29290515  0.39701778  0.93375343     0.26700
H611        H  0.27291808  0.38704823  0.87228033     0.26700
N612        N  0.39383826  0.07357685  0.94337697    -0.36100
N613        N  0.42279808  0.12728593  0.90123643    -0.56700
N614        N  0.36975326  0.09898503  0.85386220    -0.36100
N615        N  0.33982591  0.04297795  0.89744672    -0.56700
C616        C  0.42318830  0.08725121  0.95474719     0.27500
C617        C  0.37991370  0.04409499  0.95359255     0.27500
C618        C  0.38684433  0.12649280  0.83788557     0.27500
C619        C  0.34161994  0.08507684  0.83840862     0.27500
C620        C  0.43977741  0.13814289  0.93110903     0.36100
C621        C  0.42971648  0.15148746  0.88070511     0.36100
C622        C  0.32957965  0.02959794  0.92982031     0.36100
C623        C  0.31551444  0.04115256  0.88009553     0.36100
C624        C  0.42835676  0.06594291  0.97126888    -0.21400
C625        C  0.40091896  0.03858161  0.97054034    -0.21400
C626        C  0.36955862  0.13050150  0.81246072    -0.21400
C627        C  0.34105858  0.10501878  0.81326118    -0.21400
C628        C  0.45667947  0.16975029  0.93039376    -0.22400
C629        C  0.45097788  0.17820209  0.89763534    -0.22400
C630        C  0.29925000  0.02107102  0.93388343    -0.22400
C631        C  0.29002926  0.02692569  0.90169660    -0.22400
C632        C  0.44328917  0.11921877  0.95548390    -0.17800
C633        C  0.34779518  0.02499605  0.95490820    -0.17800
C634        C  0.31648493  0.05543070  0.84714318    -0.17800
C635        C  0.41686481  0.14946221  0.84701903    -0.17800
H636        H  0.45026015  0.07117508  0.48441078     0.15100
H637        H  0.39761986  0.01827316  0.48300851     0.15100
H638        H  0.37621708  0.15056082  0.79638178     0.15100
H639        H  0.32214917  0.10334105  0.79819321     0.15100
H640        H  0.47300181  0.18487468  0.95010255     0.13400
H641        H  0.46103134  0.20124219  0.88759042     0.13400
H642        H  0.28736415  0.51376166  0.95791039     0.13400
H643        H  0.26775555  0.02302632  0.89555097     0.13400
H644        H  0.38246650  0.08481530  0.93526275     0.26700
H645        H  0.37761336  0.08949698  0.87246285     0.26700
N646        N  0.40266528  0.07385672  0.59830806    -0.36100
N647        N  0.43441495  0.12716003  0.64420415    -0.56700
N648        N  0.38069323  0.09530690  0.69028423    -0.36100
N649        N  0.35082883  0.04056470  0.64526460    -0.56700
C650        C  0.43133606  0.08885994  0.58485616     0.27500
C651        C  0.38814531  0.04534040  0.58448578     0.27500
C652        C  0.40197271  0.11768485  0.71105551     0.27500
C653        C  0.36057656  0.07307922  0.71217243     0.27500
C654        C  0.44470052  0.13799688  0.61113157     0.36100
C655        C  0.43384783  0.14976469  0.66247830     0.36100
C656        C  0.33932516  0.03042911  0.61238508     0.36100
C657        C  0.32821051  0.04033982  0.66441262     0.36100
C658        C  0.43576680  0.06901263  0.56361424    -0.21400
C659        C  0.40834666  0.04147200  0.56326131    -0.21400
C660        C  0.39621741  0.10904993  0.74652423    -0.21400
C661        C  0.36981002  0.08086516  0.74733212    -0.21400
C662        C  0.44924112  0.16708565  0.60780805    -0.22400
C663        C  0.44357927  0.17513843  0.64107430    -0.22400
C664        C  0.30986337  0.02522324  0.60998583    -0.22400
C665        C  0.30219238  0.03026789  0.64364950    -0.22400
C666        C  0.44971655  0.12112573  0.58479913    -0.17800
C667        C  0.35592077  0.02605263  0.58536046    -0.17800
C668        C  0.33200308  0.04930080  0.70038912    -0.17800
C669        C  0.42384461  0.14659988  0.69807222    -0.17800
H670        H  0.45589285  0.07453069  0.54800521     0.15100
H671        H  0.40325135  0.02157392  0.54751947     0.15100
H672        H  0.40927020  0.12185480  0.76941290     0.15100
H673        H  0.35840131  0.06810351  0.77108901     0.15100
H674        H  0.45565090  0.18084065  0.58387589     0.13400
H675        H  0.44491251  0.19641017  0.64817997     0.13400
H676        H  0.29570904  0.52087633  0.58533500     0.13400
H677        H  0.28062599  0.02823630  0.65115690     0.13400
H678        H  0.39174502  0.08426252  0.61037926     0.26700
H679        H  0.37749175  0.09724836  0.66308249     0.26700
C680        C  0.33983335  0.00683948  0.55350816     0.02800
C681        C  0.32244537  0.47454676  0.55386832     0.02800
C682        C  0.31132958  0.45894819  0.52142001    -0.17800
C683        C  0.32026734  0.47473082  0.98814476     0.02800
C684        C  0.33442986  0.00601137  0.98812175     0.02800
C685        C  0.34438489  0.02203996  0.52072236    -0.17800
H686        H  0.35746489  0.04678946  0.52056105     0.04800
H687        H  0.29870365  0.43418339  0.52169713     0.04800
N688        N  0.39913409  0.32734389  0.94260697    -0.36100
N689        N  0.32689331  0.28669341  0.90892933    -0.56700
N690        N  0.36698141  0.27096038  0.85748895    -0.36100
N691        N  0.43082993  0.30806848  0.89771058    -0.57300
C692        C  0.38462471  0.34121719  0.95561600     0.27500
C693        C  0.42745677  0.34123815  0.95735215     0.27500
C694        C  0.33804609  0.25404760  0.84446295     0.27500
C695        C  0.38465946  0.26159474  0.84120083     0.27500
C696        C  0.33844203  0.31612502  0.91994866     0.36100
C697        C  0.32126488  0.28619780  0.87311903     0.36100
C698        C  0.44178835  0.30733820  0.93029517     0.36100
C699        C  0.42876953  0.28417767  0.88010086     0.36100
C700        C  0.40425435  0.36531175  0.97745891    -0.21400
C701        C  0.43153552  0.36541184  0.97843561    -0.21400
C702        C  0.33712397  0.23213303  0.82127720    -0.21400
C703        C  0.36657521  0.23728812  0.81874044    -0.21400
C704        C  0.34368730  0.33444296  0.89039694    -0.22400
C705        C  0.33182207  0.31551965  0.86113289    -0.22400
C706        C  0.44547450  0.28237993  0.93369073    -0.22400
C707        C  0.43809958  0.26802808  0.90103004    -0.22400
C708        C  0.35274229  0.32827709  0.95343112    -0.17800
C709        C  0.44644073  0.32837209  0.95708840    -0.17800
C710        C  0.41673675  0.27558145  0.84606090    -0.17800
C711        C  0.31483500  0.26184644  0.84923276    -0.17800
H712        H  0.39804944  0.37995740  0.49176926     0.15100
H713        H  0.45088921  0.38047848  0.49378786     0.15100
H714        H  0.31775147  0.21450791  0.80679980     0.15100
H715        H  0.37349474  0.22440287  0.80215222     0.15100
H716        H  0.35551406  0.35911618  0.89007460     0.13400
H717        H  0.33351284  0.32273458  0.83365259     0.13400
H718        H  0.45131920  0.27459850  0.95763134     0.13400
H719        H  0.43775625  0.24718642  0.89404163     0.13400
H720        H  0.38800958  0.30606727  0.93013214     0.26700
H721        H  0.37522470  0.29036318  0.87344415     0.26700
N722        N  0.39779322  0.32340863  0.59869775    -0.36100
N723        N  0.42973986  0.30213486  0.64569633    -0.56700
N724        N  0.37622043  0.27858133  0.69024668    -0.36100
N725        N  0.34651398  0.30380817  0.64415531    -0.56700
C726        C  0.42725883  0.33885561  0.58803732     0.27500
C727        C  0.38378321  0.33792795  0.58548514     0.27500
C728        C  0.39731582  0.27752824  0.71138491     0.27500
C729        C  0.35564305  0.28020845  0.71179593     0.27500
C730        C  0.44102652  0.30311426  0.61284781     0.36100
C731        C  0.43053489  0.27950061  0.66342418     0.36100
C732        C  0.33461428  0.30349557  0.61178488     0.36100
C733        C  0.32381799  0.28159550  0.66348608     0.36100
C734        C  0.43253723  0.36450405  0.56917273    -0.21400
C735        C  0.40491949  0.36384164  0.56746848    -0.21400
C736        C  0.39053161  0.27927749  0.74674394    -0.21400
C737        C  0.36407775  0.28076291  0.74716275    -0.21400
C738        C  0.44754145  0.27991081  0.60897398    -0.22400
C739        C  0.44208231  0.26561982  0.64183730    -0.22400
C740        C  0.30460100  0.27996819  0.60982434    -0.22400
C741        C  0.29719284  0.26679412  0.64330960    -0.22400
C742        C  0.44617068  0.32583321  0.58777497    -0.17800
C743        C  0.35162398  0.32484958  0.58504367    -0.17800
C744        C  0.32760004  0.27659334  0.69958188    -0.17800
C745        C  0.42041672  0.27203253  0.69880204    -0.17800
H746        H  0.45366219  0.38091047  0.55632820     0.15100
H747        H  0.40057235  0.37986314  0.55362046     0.15100
H748        H  0.40331041  0.27936286  0.76968404     0.15100
H749        H  0.35225639  0.28155785  0.77083140     0.15100
H750        H  0.45561008  0.27414109  0.58509825     0.13400
H751        H  0.44504788  0.24662023  0.64859818     0.13400
H752        H  0.28993096  0.27265993  0.58655281     0.13400
H753        H  0.27523216  0.24776463  0.65111779     0.13400
H754        H  0.38663928  0.30120830  0.60861230     0.26700
H755        H  0.37373833  0.27439476  0.66278586     0.26700
N756        N  0.06517535  0.40657330  0.60018731    -0.36100
N757        N  0.02984169  0.35732973  0.64894106    -0.56700
N758        N  0.08424940  0.38754602  0.69566989    -0.36100
N759        N  0.11758392  0.43855526  0.64720957    -0.56700
C760        C  0.03660282  0.39233980  0.58642326     0.27500
C761        C  0.07998919  0.43524858  0.58731216     0.27500
C762        C  0.06130278  0.36870444  0.71793670     0.27500
C763        C  0.10732517  0.40888840  0.71590958     0.27500
C764        C  0.01990199  0.34452416  0.61634858     0.36100
C765        C  0.02794032  0.33525718  0.67048502     0.36100
C766        C  0.12919319  0.44960664  0.61452180     0.36100
C767        C  0.14038111  0.43933171  0.66669741     0.36100
C768        C  0.03255603  0.41252084  0.56579499    -0.21400
C769        C  0.06002644  0.43982430  0.56655235    -0.21400
C770        C  0.06954142  0.37883872  0.75281335    -0.21400
C771        C  0.09845122  0.40451939  0.75133771    -0.21400
C772        C  0.51369852  0.31656150  0.61613931    -0.22400
C773        C  0.01697592  0.30825378  0.65126220    -0.22400
C774        C  0.15923239  0.45620534  0.61266607    -0.22400
C775        C  0.16674309  0.45074723  0.64635508    -0.22400
C776        C  0.01709543  0.36046715  0.58735585    -0.17800
C777        C  0.11220898  0.45390670  0.58754029    -0.17800
C778        C  0.13683456  0.43000536  0.70271544    -0.17800
C779        C  0.03621200  0.34028760  0.70704328    -0.17800
H780        H  0.01244844  0.40759616  0.55054684     0.15100
H781        H  0.06538014  0.46009253  0.55169611     0.15100
H782        H  0.05650698  0.36855550  0.77683926     0.15100
H783        H  0.11158257  0.41834424  0.77367329     0.15100
H784        H  0.50760249  0.30176456  0.59304459     0.13400
H785        H  0.51489790  0.28801627  0.65895935     0.13400
H786        H  0.17408806  0.46412363  0.58954932     0.13400
H787        H  0.18858299  0.45380028  0.65459098     0.13400
H788        H  0.07560180  0.39559661  0.61201850     0.26700
H789        H  0.08591401  0.38350139  0.66863417     0.26700
N790        N  0.06329979  0.40575747  0.94203428    -0.36100
N791        N  0.11664401  0.44074258  0.89646495    -0.56700
N792        N  0.09126169  0.37877096  0.85633891    -0.36100
N793        N  0.03504409  0.34887957  0.89934495    -0.56700
C794        C  0.07667293  0.43471354  0.95459058     0.27500
C795        C  0.03417525  0.39060699  0.95398890     0.27500
C796        C  0.11780063  0.39704711  0.83882499     0.27500
C797        C  0.07792906  0.35056363  0.84123825     0.27500
C798        C  0.12624132  0.44973567  0.93020827     0.36100
C799        C  0.13954499  0.43912466  0.88072180     0.36100
C800        C  0.02200257  0.33989391  0.93202046     0.36100
C801        C  0.03483603  0.32453892  0.88419877     0.36100
C802        C  0.05538132  0.43859231  0.97340116    -0.21400
C803        C  0.02840269  0.41071028  0.97286068    -0.21400
C804        C  0.12251890  0.38024982  0.81327300    -0.21400
C805        C  0.09768962  0.35096844  0.81490542    -0.21400
C806        C  0.15411789  0.45182390  0.93640154    -0.22400
C807        C  0.16314080  0.44589237  0.90425541    -0.22400
C808        C  0.51260276  0.30904041  0.93698100    -0.22400
C809        C  0.02171703  0.29999649  0.90729776    -0.22400
C810        C  0.10877793  0.45449659  0.95528026    -0.17800
C811        C  0.01630996  0.35837911  0.95564773    -0.17800
C812        C  0.04884414  0.32482864  0.85126080    -0.17800
C813        C  0.13785483  0.42830692  0.84645093    -0.17800
H814        H  0.06057696  0.45855031  0.48899256     0.15100
H815        H  0.00829040  0.40538108  0.48709295     0.15100
H816        H  0.14218133  0.38799651  0.79597618     0.15100
H817        H  0.09578855  0.33227318  0.79916298     0.15100
H818        H  0.16607182  0.45620057  0.96164132     0.13400
H819        H  0.18364495  0.44488239  0.89916993     0.13400
H820        H  0.50263507  0.29554897  0.96075360     0.13400
H821        H  0.51595121  0.27668014  0.90079559     0.13400
H822        H  0.07512958  0.39544013  0.93242086     0.26700
H823        H  0.08224568  0.38625472  0.87590243     0.26700
N824        N  0.14210171  0.06927434  0.59855418    -0.36100
N825        N  0.17045110  0.13064077  0.63941045    -0.56700
N826        N  0.17880983  0.08799847  0.69476430    -0.36100
N827        N  0.16197594  0.03738202  0.64613753    -0.56700
C828        C  0.12718688  0.08220637  0.58402597     0.27500
C829        C  0.13000629  0.04111937  0.58420139     0.27500
C830        C  0.18307906  0.11135536  0.71554402     0.27500
C831        C  0.18270644  0.06868982  0.71574956     0.27500
C832        C  0.14557020  0.12667504  0.62112186     0.36100
C833        C  0.16649775  0.13668517  0.67368212     0.36100
C834        C  0.16509678  0.02866936  0.61313684     0.36100
C835        C  0.18419508  0.03781454  0.66625138     0.36100
C836        C  0.10415746  0.06164479  0.56169225    -0.21400
C837        C  0.10587490  0.03546516  0.56187092    -0.21400
C838        C  0.18847477  0.10644009  0.75054249    -0.21400
C839        C  0.18779969  0.07924501  0.75077904    -0.21400
C840        C  0.12433436  0.12608846  0.64497716    -0.22400
C841        C  0.13819612  0.13402222  0.67793719    -0.22400
C842        C  0.18991488  0.02448483  0.61172332    -0.22400
C843        C  0.20152105  0.02922045  0.64592140    -0.22400
C844        C  0.13731095  0.11341523  0.58685626    -0.17800
C845        C  0.14484529  0.02405355  0.58519545    -0.17800
C846        C  0.18834279  0.04611277  0.70259331    -0.17800
C847        C  0.18453879  0.13784087  0.70274948    -0.17800
H848        H  0.08855789  0.06562865  0.54615822     0.15100
H849        H  0.09219372  0.01527570  0.54592800     0.15100
H850        H  0.19323316  0.12110878  0.77348433     0.15100
H851        H  0.19277919  0.06977594  0.77379974     0.15100
H852        H  0.10078743  0.11938248  0.63937656     0.13400
H853        H  0.12769439  0.13492191  0.70278176     0.13400
H854        H  0.19667799  0.51667026  0.59165894     0.13400
H855        H  0.21850770  0.52544871  0.65731663     0.13400
H856        H  0.16304861  0.08114531  0.61168337     0.26700
H857        H  0.17793048  0.08802627  0.66707400     0.26700
N858        N  0.15062376  0.07270735  0.94270558    -0.36100
N859        N  0.17823431  0.04581610  0.89875086    -0.56700
N860        N  0.20744013  0.10280023  0.85758254    -0.36100
N861        N  0.18447538  0.13654081  0.90860743    -0.56700
C862        C  0.13630983  0.04343215  0.95391495     0.27500
C863        C  0.13417343  0.08490785  0.95512716     0.27500
C864        C  0.22196607  0.08890106  0.84303430     0.27500
C865        C  0.22137996  0.13203321  0.84546067     0.27500
C866        C  0.17358829  0.03086643  0.93021678     0.36100
C867        C  0.19961012  0.04259452  0.88073400     0.36100
C868        C  0.15756727  0.13201427  0.92242206     0.36100
C869        C  0.18514020  0.14468754  0.87386388     0.36100
C870        C  0.10955291  0.03657961  0.97161054    -0.21400
C871        C  0.10828128  0.06296516  0.97250434    -0.21400
C872        C  0.24622205  0.11018608  0.82244540    -0.21400
C873        C  0.24602908  0.13717376  0.82421919    -0.21400
C874        C  0.19354790  0.02016133  0.93314282    -0.22400
C875        C  0.20851692  0.02584461  0.90093943    -0.22400
C876        C  0.13996697  0.13342142  0.89510229    -0.22400
C877        C  0.15788992  0.14309707  0.86502038    -0.22400
C878        C  0.15026459  0.02551805  0.95499253    -0.17800
C879        C  0.14412657  0.11616027  0.95442498    -0.17800
C880        C  0.20925191  0.15193674  0.84920950    -0.17800
C881        C  0.21455126  0.05793489  0.84886463    -0.17800
H882        H  0.09185218  0.01471042  0.48344992     0.15100
H883        H  0.08880900  0.06537380  0.48389253     0.15100
H884        H  0.26341732  0.10742027  0.80867625     0.15100
H885        H  0.26259160  0.15808602  0.81128906     0.15100
H886        H  0.19494060  0.50744096  0.95609542     0.13400
H887        H  0.22439099  0.51879620  0.89465382     0.13400
H888        H  0.11601840  0.12670233  0.89636063     0.13400
H889        H  0.15065687  0.14601091  0.83885622     0.13400
H890        H  0.17286621  0.08510244  0.93276044     0.26700
H891        H  0.18706648  0.09228052  0.87196068     0.26700
C892        C  0.13783760  0.13068571  0.55358356     0.02800
C893        C  0.13013353  0.15387875  0.55307844     0.02800
C894        C  0.12631205  0.16439280  0.51987161    -0.17800
C895        C  0.12786209  0.15098706  0.98825472     0.02800
C896        C  0.13942566  0.13070822  0.98773560     0.02800
C897        C  0.14455696  0.12172684  0.52020618    -0.17800
H898        H  0.15293089  0.10591158  0.52041041     0.04800
H899        H  0.11821849  0.18049214  0.51963736     0.04800
N900        N  0.06592078  0.15651592  0.94269027    -0.36100
N901        N  0.12040504  0.18659750  0.90411539    -0.56700
N902        N  0.09199634  0.21311287  0.85828079    -0.36100
N903        N  0.03596831  0.19224576  0.90667489    -0.56700
C904        C  0.08114188  0.14356163  0.95697144     0.27500
C905        C  0.03667328  0.14015985  0.95355298     0.27500
C906        C  0.11981056  0.22437075  0.84279521     0.27500
C907        C  0.07847979  0.22779825  0.84376360     0.27500
C908        C  0.13179358  0.18046625  0.93333926     0.36100
C909        C  0.14446672  0.20539988  0.88402119     0.36100
C910        C  0.01443116  0.16399482  0.91819363     0.36100
C911        C  0.02886671  0.19405039  0.87198338     0.36100
C912        C  0.06080990  0.11784672  0.97610330    -0.21400
C913        C  0.03266450  0.11590572  0.97426528    -0.21400
C914        C  0.12441972  0.24678241  0.81863335    -0.21400
C915        C  0.09882655  0.24957297  0.81984430    -0.21400
C916        C  0.16350099  0.19633611  0.93242490    -0.22400
C917        C  0.17155387  0.21146379  0.90027906    -0.22400
C918        C  0.49501317  0.14599195  0.89023315    -0.22400
C919        C  0.00427852  0.16641482  0.86107941    -0.22400
C920        C  0.11345616  0.15719591  0.95738169    -0.17800
C921        C  0.01575696  0.15043793  0.95054684    -0.17800
C922        C  0.04697513  0.21837473  0.84805886    -0.17800
C923        C  0.14202970  0.21630459  0.85079717    -0.17800
H924        H  0.06519526  0.10224903  0.48874153     0.15100
H925        H  0.01083812  0.09840488  0.48538127     0.15100
H926        H  0.14463259  0.26044918  0.80258785     0.15100
H927        H  0.09615876  0.26590720  0.80433901     0.15100
H928        H  0.17897465  0.19534697  0.95156096     0.13400
H929        H  0.19461575  0.22554041  0.89025702     0.13400
H930        H  0.47807999  0.12189473  0.89010578     0.13400
H931        H  0.49404087  0.15901781  0.83467416     0.13400
H932        H  0.07547742  0.17836077  0.93212302     0.26700
H933        H  0.08150179  0.19419216  0.87497975     0.26700
N934        N  0.06978097  0.16272769  0.59438110    -0.36100
N935        N  0.12214105  0.18735780  0.64044711    -0.56700
N936        N  0.08970911  0.20395245  0.68892300    -0.36100
N937        N  0.03560342  0.17844841  0.64165348    -0.56700
C938        C  0.08437848  0.14823862  0.58330748     0.27500
C939        C  0.04084598  0.14686936  0.58166191     0.27500
C940        C  0.11157119  0.20491405  0.71034362     0.27500
C941        C  0.06658350  0.20032921  0.71018822     0.27500
C942        C  0.13448735  0.18308266  0.61056028     0.36100
C943        C  0.14528636  0.20487401  0.66298230     0.36100
C944        C  0.02409528  0.17879305  0.60926496     0.36100
C945        C  0.03369515  0.19932739  0.66193423     0.36100
C946        C  0.06408719  0.12205097  0.56463537    -0.21400
C947        C  0.03651260  0.12130336  0.56339970    -0.21400
C948        C  0.10185507  0.20101145  0.74556321    -0.21400
C949        C  0.07351812  0.19833788  0.74558726    -0.21400
C950        C  0.16612424  0.19848734  0.61375220    -0.22400
C951        C  0.17297568  0.21212219  0.64728273    -0.22400
C952        C  0.51589136  0.20113523  0.60838994    -0.22400
C953        C  0.02109404  0.21334246  0.64232125    -0.22400
C954        C  0.11650381  0.16133207  0.58402426    -0.17800
C955        C  0.02077142  0.15839149  0.58176915    -0.17800
C956        C  0.04251094  0.20413669  0.69811906    -0.17800
C957        C  0.14058825  0.21099274  0.69864789    -0.17800
H958        H  0.06914134  0.10599689  0.55189312     0.15100
H959        H  0.01600354  0.10460529  0.54964019     0.15100
H960        H  0.11391011  0.20041723  0.76892582     0.15100
H961        H  0.06023235  0.19598869  0.76922346     0.15100
H962        H  0.18228700  0.19828813  0.59498288     0.13400
H963        H  0.19551630  0.22490958  0.65918453     0.13400
H964        H  0.50790023  0.20804274  0.58548921     0.13400
H965        H  0.51659127  0.23121586  0.65124721     0.13400
H966        H  0.08031394  0.18494518  0.60441837     0.26700
H967        H  0.09213302  0.20970568  0.66189278     0.26700
C968        C  0.49673092  0.14749986  0.98435292     0.02800
C969        C  0.46432257  0.13279929  0.98641799     0.02800
C970        C  0.45093910  0.12909078  0.51983721    -0.17800
C971        C  0.46766142  0.13610257  0.55175341     0.02800
C972        C  0.50008294  0.15242055  0.55000806     0.02800
C973        C  0.01427117  0.15928818  0.51587406    -0.17800
H974        H  0.03905586  0.17079106  0.51444023     0.04800
H975        H  0.42610291  0.11681267  0.52130988     0.04800
C976        C  0.14270576  0.00563108  0.55324009     0.02800
C977        C  0.12700146  0.47291291  0.55501513     0.02800
C978        C  0.11982352  0.45756833  0.52200288    -0.17800
C979        C  0.12388066  0.47310849  0.98776684     0.02800
C980        C  0.14451366  0.00608399  0.98769136     0.02800
C981        C  0.15236962  0.02115645  0.52036946    -0.17800
H982        H  0.16488862  0.04591031  0.52050987     0.04800
H983        H  0.10699722  0.43281043  0.52187422     0.04800
C984        C  0.46511037  0.33127197  0.98933742     0.02800
C985        C  0.49738236  0.34450553  0.98897694     0.02800
C986        C  0.01310333  0.35036163  0.52189673    -0.17800
C987        C  0.49774115  0.34675913  0.55564673     0.02800
C988        C  0.46525994  0.33070691  0.55544064     0.02800
C989        C  0.44965676  0.32242817  0.52256730    -0.17800
H990        H  0.42481853  0.31080992  0.52259707     0.04800
H991        H  0.03793592  0.36212044  0.52167493     0.04800
C992        C  0.33665771  0.32943523  0.55291280     0.02800
C993        C  0.32041027  0.34549194  0.55376829     0.02800
C994        C  0.31044627  0.35116961  0.52128775    -0.17800
C995        C  0.32009412  0.34595474  0.98797734     0.02800
C996        C  0.33657065  0.33028427  0.98654753     0.02800
C997        C  0.34236450  0.32033886  0.51931960    -0.17800
H998        H  0.35527556  0.30864991  0.51875214     0.04800
H999        H  0.29811221  0.36346580  0.52191855     0.04800
O1000       O  0.29115856  0.31985350  0.79024426    -0.79600
O1001       O  0.20287870  0.19158953  0.82306885    -0.79700
O1002       O  0.19136997  0.24267637  0.82371995    -0.79700
O1003       O  0.28737362  0.23626701  0.79433353    -0.79600
O1004       O  0.15722760  0.20035253  0.79972343    -0.79700
O1005       O  0.27352811  0.26532490  0.82151849    -0.79600
O1006       O  0.23325986  0.18056618  0.79484606    -0.79600
O1007       O  0.24333061  0.29807688  0.81125219    -0.79700
C1008       C  0.27154657  0.31992756  0.81120546     1.10100
C1009       C  0.21626226  0.17652323  0.82169118     1.09900
C1010       C  0.16439542  0.22030768  0.82339460     1.10100
C1011       C  0.29005394  0.25324793  0.82096107     1.10000
O1012       O  0.30355409  0.28066857  0.75254331    -0.79600
O1013       O  0.17589141  0.20263203  0.72960614    -0.79700
O1014       O  0.22274827  0.29399206  0.73779520    -0.79600
O1015       O  0.22270220  0.18773369  0.71975684    -0.79600
O1016       O  0.18329812  0.16276903  0.75548461    -0.79700
O1017       O  0.26523989  0.29564840  0.72660042    -0.79600
O1018       O  0.27695801  0.24154023  0.71777586    -0.79600
O1019       O  0.17170304  0.24095634  0.74798786    -0.79700
Co1020     Co  0.26670706  0.27932645  0.77447696     1.51500
Co1021     Co  0.19260237  0.20189004  0.77638069     1.51700
Co1022     Co  0.20962990  0.26561948  0.77869836     1.51600
Co1023     Co  0.25334743  0.21392809  0.75717685     1.51500
O1024       O  0.23135767  0.23933907  0.76430536    -1.41600
C1025       C  0.30151222  0.26587844  0.72439338     1.10000
C1026       C  0.16477652  0.21940322  0.72585700     1.10100
C1027       C  0.24667395  0.30433205  0.71963387     1.10000
C1028       C  0.19719899  0.16406233  0.72692021     1.10000
O1029       O  0.26808262  0.47124395  0.72794539    -0.79600
O1030       O  0.19030754  0.02200668  0.75606238    -0.79700
O1031       O  0.17150157  0.42958644  0.74647836    -0.79700
O1032       O  0.28249245  0.03854563  0.71713236    -0.79600
O1033       O  0.17669396  0.47253289  0.73314959    -0.79700
O1034       O  0.30585750  0.02343854  0.75347386    -0.79600
O1035       O  0.22865696  0.03803878  0.71826708    -0.79600
O1036       O  0.22414367  0.43094391  0.73659976    -0.79700
C1037       C  0.24887396  0.44425535  0.71979764     1.10100
C1038       C  0.20299949  0.03459407  0.72661883     1.09900
C1039       C  0.16335767  0.44465479  0.72785160     1.10100
C1040       C  0.30552600  0.03637938  0.72474312     1.10000
O1041       O  0.27301435  0.01024138  0.82155989    -0.79600
O1042       O  0.15752170  0.46796657  0.80307117    -0.79700
O1043       O  0.24256030  0.44668093  0.81106340    -0.79600
O1044       O  0.23703008  0.05452667  0.79298104    -0.79600
O1045       O  0.21362479  0.01292003  0.82391931    -0.79700
O1046       O  0.29132058  0.47356342  0.79297514    -0.79600
O1047       O  0.28998595  0.05269755  0.79274035    -0.79600
O1048       O  0.18751735  0.45014917  0.81991814    -0.79700
Co1049     Co  0.26792300  0.48959778  0.77496138     1.51500
Co1050     Co  0.19637502  0.48982479  0.77984002     1.51700
Co1051     Co  0.20987401  0.44622489  0.77658671     1.51600
Co1052     Co  0.25785476  0.04242700  0.75538880     1.51500
O1053       O  0.23442749  0.49562576  0.76073239    -1.41600
C1054       C  0.29076957  0.03883258  0.82039120     1.10000
C1055       C  0.16152895  0.44900931  0.82113583     1.10100
C1056       C  0.27078240  0.45292214  0.81223514     1.10000
C1057       C  0.22345847  0.04131923  0.82164114     1.10000
O1058       O  0.46654318  0.18538061  0.72806005    -0.79600
O1059       O  0.01156612  0.31424928  0.76211954    -0.79700
O1060       O  0.42459724  0.23301909  0.72895703    -0.79700
O1061       O  0.02691480  0.23860702  0.71793599    -0.79600
O1062       O  0.45636393  0.27999724  0.74419555    -0.79700
O1063       O  0.01598399  0.19978496  0.75204418    -0.79600
O1064       O  0.02513576  0.29103424  0.72280840    -0.79600
O1065       O  0.42255738  0.17993639  0.74241590    -0.79700
C1066       C  0.43841575  0.17270392  0.72306666     1.10100
C1067       C  0.02338820  0.31396354  0.73195864     1.09900
C1068       C  0.43518658  0.26100725  0.72426021     1.10100
C1069       C  0.02797959  0.21473172  0.72380148     1.10000
O1070       O  0.00200888  0.21385753  0.82164084    -0.79600
O1071       O  0.46306695  0.29688135  0.81271454    -0.79700
O1072       O  0.43455012  0.19770248  0.81899299    -0.79600
O1073       O  0.04357659  0.29834534  0.79598241    -0.79600
O1074       O  0.00332086  0.27927879  0.82944778    -0.79700
O1075       O  0.45038223  0.16843233  0.79771764    -0.79600
O1076       O  0.04407887  0.24464899  0.79444163    -0.79600
O1077       O  0.42925837  0.24744651  0.80549940    -0.79700
Co1078     Co  0.48316293  0.20480310  0.77436014     1.51500
Co1079     Co  0.47853778  0.27590112  0.78645648     1.51700
Co1080     Co  0.43325449  0.21711574  0.77282819     1.51600
Co1081     Co  0.03072456  0.26609182  0.75808370     1.51500
O1082       O  0.48254580  0.24267500  0.76485384    -1.41600
C1083       C  0.03055253  0.22696175  0.82079331     1.10000
C1084       C  0.43721849  0.27343412  0.81985715     1.10100
C1085       C  0.43477985  0.17303113  0.82022124     1.10000
C1086       C  0.03153176  0.29842165  0.82552278     1.10000
N1087       N  0.31203773  0.90531613  0.09757295    -0.36100
N1088       N  0.28887687  0.85192752  0.14283865    -0.56700
N1089       N  0.25838174  0.87876192  0.18548493    -0.36100
N1090       N  0.28926752  0.93599031  0.14370850    -0.56700
C1091       C  0.32725688  0.89144847  0.08583072     0.27500
C1092       C  0.32751455  0.93462964  0.08636868     0.27500
C1093       C  0.25340651  0.85469944  0.20597778     0.27500
C1094       C  0.25341320  0.89782144  0.20619546     0.27500
C1095       C  0.29162160  0.84139806  0.11060191     0.36100
C1096       C  0.26610962  0.82776557  0.16006546     0.36100
C1097       C  0.29221157  0.94921262  0.11152117     0.36100
C1098       C  0.26688627  0.93786648  0.16103269     0.36100
C1099       C  0.35337691  0.91252894  0.06782440    -0.21400
C1100       C  0.35354540  0.93984019  0.06818024    -0.21400
C1101       C  0.24422397  0.85820564  0.23975393    -0.21400
C1102       C  0.24413214  0.88513090  0.23982153    -0.21400
C1103       C  0.26940368  0.81104594  0.10669876    -0.22400
C1104       C  0.25410323  0.80193702  0.13885666    -0.22400
C1105       C  0.27052321  0.95784743  0.10781045    -0.22400
C1106       C  0.25540975  0.95202048  0.14002217    -0.22400
C1107       C  0.31462562  0.85931704  0.08558829    -0.17800
C1108       C  0.31509049  0.95411655  0.08646977    -0.17800
C1109       C  0.25578882  0.92563636  0.19498621    -0.17800
C1110       C  0.25550982  0.82910304  0.19434037    -0.17800
H1111       H  0.36984941  0.90825908  0.05466146     0.15100
H1112       H  0.37016524  0.96080458  0.05533816     0.15100
H1113       H  0.23855442  0.84346097  0.26267927     0.15100
H1114       H  0.23831982  0.89428835  0.26263496     0.15100
H1115       H  0.26444634  0.79716687  0.08293512     0.13400
H1116       H  0.23515601  0.77949454  0.14518578     0.13400
H1117       H  0.26593090  0.96709648  0.08422539     0.13400
H1118       H  0.23693955  0.95600488  0.14652749     0.13400
H1119       H  0.28958713  0.89407344  0.10690877     0.26700
H1120       H  0.26309552  0.88110351  0.15829766     0.26700
N1121       N  0.31268215  0.90638285  0.44564855    -0.36100
N1122       N  0.29964104  0.94144677  0.39626551    -0.56700
N1123       N  0.28140545  0.89030549  0.34753614    -0.36100
N1124       N  0.29380507  0.85691375  0.39854993    -0.56700
C1125       C  0.32789648  0.93528299  0.45806454     0.27500
C1126       C  0.32705406  0.89211761  0.45816971     0.27500
C1127       C  0.28664126  0.91433147  0.32720919     0.27500
C1128       C  0.28676392  0.87146211  0.32736511     0.27500
C1129       C  0.29576519  0.95047361  0.42856681     0.36100
C1130       C  0.27875772  0.94179720  0.37466931     0.36100
C1131       C  0.29373112  0.84339752  0.42928537     0.36100
C1132       C  0.27727494  0.83488774  0.37477558     0.36100
C1133       C  0.35305522  0.93998888  0.47770791    -0.21400
C1134       C  0.35258560  0.91257555  0.47767085    -0.21400
C1135       C  0.29690553  0.91164955  0.29384887    -0.21400
C1136       C  0.29702600  0.88440075  0.29395258    -0.21400
C1137       C  0.27091661  0.95470805  0.42832762    -0.22400
C1138       C  0.26082244  0.95055713  0.39327577    -0.22400
C1139       C  0.27565501  0.81199787  0.42594853    -0.22400
C1140       C  0.26541870  0.80648913  0.39085644    -0.22400
C1141       C  0.31549484  0.95458135  0.45683217    -0.17800
C1142       C  0.31414438  0.86012273  0.45692948    -0.17800
C1143       C  0.27841308  0.84160213  0.33820118    -0.17800
C1144       C  0.27812681  0.93553827  0.33828755    -0.17800
H1145       H  0.36806887  0.96096877  0.99254426     0.15100
H1146       H  0.36852362  0.90874406  0.99185200     0.15100
H1147       H  0.30250509  0.92696864  0.27142705     0.15100
H1148       H  0.30272594  0.87470743  0.27154029     0.15100
H1149       H  0.26097264  0.95979391  0.45097117     0.13400
H1150       H  0.24195716  0.95260096  0.38313919     0.13400
H1151       H  0.27235275  0.79501860  0.44558372     0.13400
H1152       H  0.25249144  0.78428682  0.37837383     0.13400
H1153       H  0.29075003  0.89569707  0.43454906     0.26700
H1154       H  0.27032086  0.88495463  0.37226794     0.26700
N1155       N  0.39497125  0.57355618  0.44249981    -0.36100
N1156       N  0.42376961  0.62705191  0.40046169    -0.56700
N1157       N  0.37052888  0.59852155  0.35289868    -0.36100
N1158       N  0.34067135  0.54321714  0.39701499    -0.56700
C1159       C  0.42417640  0.58733908  0.45435679     0.27500
C1160       C  0.38097850  0.54416672  0.45297921     0.27500
C1161       C  0.38741966  0.62623823  0.33733887     0.27500
C1162       C  0.34219790  0.58477598  0.33787462     0.27500
C1163       C  0.44065355  0.63805904  0.43039808     0.36100
C1164       C  0.43052619  0.65121155  0.37995495     0.36100
C1165       C  0.33053003  0.52973177  0.42932493     0.36100
C1166       C  0.31617155  0.54091066  0.37961402     0.36100
C1167       C  0.42925438  0.56617274  0.47139701    -0.21400
C1168       C  0.40186427  0.53878166  0.47050031    -0.21400
C1169       C  0.36990390  0.63048299  0.31246382    -0.21400
C1170       C  0.34142520  0.60494550  0.31324837    -0.21400
C1171       C  0.45736649  0.66966447  0.42966267    -0.22400
C1172       C  0.45165772  0.67799932  0.39686875    -0.22400
C1173       C  0.30005243  0.52066359  0.43328411    -0.22400
C1174       C  0.29059863  0.52613875  0.40104152    -0.22400
C1175       C  0.44408557  0.61930149  0.45509186    -0.17800
C1176       C  0.34884903  0.52522782  0.45434232    -0.17800
C1177       C  0.31695426  0.55521378  0.34680071    -0.17800
C1178       C  0.41743992  0.64920919  0.34646447    -0.17800
H1179       H  0.45066855  0.57198441  0.98393546     0.15100
H1180       H  0.39828795  0.51890506  0.98210918     0.15100
H1181       H  0.37639467  0.65073742  0.29683593     0.15100
H1182       H  0.32237649  0.60338852  0.29861811     0.15100
H1183       H  0.47350297  0.68488742  0.44945461     0.13400
H1184       H  0.46150159  0.70103096  0.38686454     0.13400
H1185       H  0.28584573  0.01060681  0.45733991     0.13400
H1186       H  0.26800484  0.52144920  0.39469346     0.13400
H1187       H  0.38361251  0.58473228  0.43407444     0.26700
H1188       H  0.37870451  0.58889195  0.37093346     0.26700
N1189       N  0.40205418  0.57436251  0.09821399    -0.36100
N1190       N  0.43414438  0.62698937  0.14438049    -0.56700
N1191       N  0.38004575  0.59545526  0.19054167    -0.36100
N1192       N  0.35001128  0.54136695  0.14509436    -0.56700
C1193       C  0.43079281  0.58902888  0.08489515     0.27500
C1194       C  0.38726494  0.54590198  0.08431037     0.27500
C1195       C  0.40168704  0.61754675  0.21132282     0.27500
C1196       C  0.35985098  0.57319597  0.21239312     0.27500
C1197       C  0.44485024  0.63811710  0.11152674     0.36100
C1198       C  0.43387253  0.64962138  0.16286565     0.36100
C1199       C  0.33837460  0.53106161  0.11228853     0.36100
C1200       C  0.32724157  0.54046000  0.16466991     0.36100
C1201       C  0.43493818  0.56902478  0.06362158    -0.21400
C1202       C  0.40730310  0.54173316  0.06312543    -0.21400
C1203       C  0.39601481  0.60872906  0.24673633    -0.21400
C1204       C  0.36936059  0.58070625  0.24751301    -0.21400
C1205       C  0.44996055  0.66742806  0.10854394    -0.22400
C1206       C  0.44422234  0.67530122  0.14184732    -0.22400
C1207       C  0.30858578  0.52499067  0.11040093    -0.22400
C1208       C  0.30092602  0.52964793  0.14427755    -0.22400
C1209       C  0.44960069  0.62123665  0.08503501    -0.17800
C1210       C  0.35501999  0.52692502  0.08504773    -0.17800
C1211       C  0.33114741  0.54947338  0.20067742    -0.17800
C1212       C  0.42401611  0.64637277  0.19845836    -0.17800
H1213       H  0.45503153  0.57430088  0.04807613     0.15100
H1214       H  0.40196905  0.52182061  0.04727429     0.15100
H1215       H  0.40942284  0.62126169  0.26958283     0.15100
H1216       H  0.35807334  0.56776837  0.27121075     0.15100
H1217       H  0.45679202  0.68144152  0.08481137     0.13400
H1218       H  0.44600698  0.69671603  0.14925830     0.13400
H1219       H  0.29451235  0.01818211  0.08770242     0.13400
H1220       H  0.27911727  0.52684984  0.15217978     0.13400
H1221       H  0.39131009  0.58496688  0.11024265     0.26700
H1222       H  0.37683824  0.59759461  0.16339805     0.26700
C1223       C  0.33914240  0.50767796  0.05316095     0.02800
C1224       C  0.32039896  0.97375156  0.05429251     0.02800
C1225       C  0.30917738  0.95838382  0.02174417    -0.17800
C1226       C  0.31923982  0.97392849  0.48848117     0.02800
C1227       C  0.33553712  0.50641423  0.48758453     0.02800
C1228       C  0.34416677  0.52284203  0.02018238    -0.17800
H1229       H  0.35705025  0.54759147  0.01993566     0.04800
H1230       H  0.29616551  0.93361985  0.02186516     0.04800
N1231       N  0.39903048  0.82722014  0.44242975    -0.36100
N1232       N  0.32793146  0.78664814  0.40835502    -0.56700
N1233       N  0.36748900  0.77067092  0.35757475    -0.36100
N1234       N  0.43102304  0.80793030  0.39776009    -0.57300
C1235       C  0.38447142  0.84117477  0.45513954     0.27500
C1236       C  0.42739574  0.84126756  0.45715901     0.27500
C1237       C  0.33852677  0.75353036  0.34470687     0.27500
C1238       C  0.38517914  0.76116586  0.34158164     0.27500
C1239       C  0.33808588  0.81579350  0.41953736     0.36100
C1240       C  0.32144234  0.78573641  0.37275335     0.36100
C1241       C  0.44203711  0.80746620  0.43038106     0.36100
C1242       C  0.42931077  0.78412453  0.38032423     0.36100
C1243       C  0.40409410  0.86539169  0.47685078    -0.21400
C1244       C  0.43141265  0.86554541  0.47798958    -0.21400
C1245       C  0.33762365  0.73132031  0.32203897    -0.21400
C1246       C  0.36709353  0.73655021  0.31954668    -0.21400
C1247       C  0.34171846  0.83379947  0.39016385    -0.22400
C1248       C  0.33013708  0.81471546  0.36094918    -0.22400
C1249       C  0.44605073  0.78272103  0.43401704    -0.22400
C1250       C  0.43880670  0.76822090  0.40145470    -0.22400
C1251       C  0.35256841  0.82838253  0.45280725    -0.17800
C1252       C  0.44662360  0.82862659  0.45694327    -0.17800
C1253       C  0.41727018  0.77528102  0.34633630    -0.17800
C1254       C  0.31533202  0.76143963  0.34885530    -0.17800
H1255       H  0.39962472  0.88056150  0.99139963     0.15100
H1256       H  0.45224698  0.88063788  0.99316175     0.15100
H1257       H  0.31825168  0.71341130  0.30786342     0.15100
H1258       H  0.37401278  0.72346923  0.30332338     0.15100
H1259       H  0.35229704  0.85838628  0.38988656     0.13400
H1260       H  0.33085412  0.82176844  0.33356825     0.13400
H1261       H  0.45203788  0.77518016  0.45804963     0.13400
H1262       H  0.43867065  0.74744802  0.39465865     0.13400
H1263       H  0.38798399  0.80590982  0.43002469     0.26700
H1264       H  0.37575031  0.79033901  0.37307280     0.26700
N1265       N  0.39764796  0.82278511  0.09792086    -0.36100
N1266       N  0.43036223  0.80183511  0.14510004    -0.56700
N1267       N  0.37749414  0.77894572  0.19002115    -0.36100
N1268       N  0.34700921  0.80399480  0.14408075    -0.56700
C1269       C  0.42705610  0.83795820  0.08701385     0.27500
C1270       C  0.38383855  0.83762038  0.08501559     0.27500
C1271       C  0.39842626  0.77757516  0.21115073     0.27500
C1272       C  0.35667544  0.78002354  0.21160136     0.27500
C1273       C  0.44059178  0.80205179  0.11186507     0.36100
C1274       C  0.43114223  0.77920480  0.16287681     0.36100
C1275       C  0.33482715  0.80369384  0.11185129     0.36100
C1276       C  0.32458079  0.78153233  0.16346251     0.36100
C1277       C  0.43250340  0.86370727  0.06825264    -0.21400
C1278       C  0.40506154  0.86343450  0.06692286    -0.21400
C1279       C  0.39123836  0.77852050  0.24655036    -0.21400
C1280       C  0.36473142  0.77985599  0.24698448    -0.21400
C1281       C  0.44634730  0.77834557  0.10778242    -0.22400
C1282       C  0.44147722  0.76446678  0.14086710    -0.22400
C1283       C  0.30490467  0.77995362  0.11007888    -0.22400
C1284       C  0.29783684  0.76663941  0.14351269    -0.22400
C1285       C  0.44580627  0.82473278  0.08674440    -0.17800
C1286       C  0.35170903  0.82489509  0.08483535    -0.17800
C1287       C  0.32859097  0.77620352  0.19939562    -0.17800
C1288       C  0.42154805  0.77218492  0.19849170    -0.17800
H1289       H  0.45365186  0.88001061  0.05538161     0.15100
H1290       H  0.40086380  0.87966207  0.05331498     0.15100
H1291       H  0.40362645  0.77791225  0.26950623     0.15100
H1292       H  0.35250593  0.77990198  0.27064926     0.15100
H1293       H  0.45368595  0.77208006  0.08367311     0.13400
H1294       H  0.44402885  0.74520429  0.14753296     0.13400
H1295       H  0.29013760  0.77246912  0.08689490     0.13400
H1296       H  0.27604597  0.74740643  0.15142859     0.13400
H1297       H  0.38638811  0.80060589  0.10788431     0.26700
H1298       H  0.37512901  0.77514342  0.16249856     0.26700
N1299       N  0.06551507  0.90880900  0.10045112    -0.36100
N1300       N  0.02995288  0.85895155  0.14892465    -0.56700
N1301       N  0.08492697  0.88880440  0.19478779    -0.36100
N1302       N  0.11843267  0.94002800  0.14656375    -0.56700
C1303       C  0.03691435  0.89480969  0.08679627     0.27500
C1304       C  0.08080049  0.93724421  0.08692008     0.27500
C1305       C  0.06202104  0.87002887  0.21706617     0.27500
C1306       C  0.10792298  0.91011440  0.21506257     0.27500
C1307       C  0.02036191  0.84666468  0.11605673     0.36100
C1308       C  0.02867026  0.83677011  0.16980571     0.36100
C1309       C  0.12995625  0.95070620  0.11371899     0.36100
C1310       C  0.14107351  0.94034555  0.16593992     0.36100
C1311       C  0.03324109  0.91507317  0.06581365    -0.21400
C1312       C  0.06105219  0.94205337  0.06603290    -0.21400
C1313       C  0.07011083  0.88021344  0.25193400    -0.21400
C1314       C  0.09897235  0.90587883  0.25046332    -0.21400
C1315       C  0.51241382  0.81476477  0.11643249    -0.22400
C1316       C  0.01847813  0.81023280  0.14996008    -0.22400
C1317       C  0.15977463  0.95665974  0.11171123    -0.22400
C1318       C  0.16724328  0.95114815  0.14540473    -0.22400
C1319       C  0.01741718  0.86290124  0.08743559    -0.17800
C1320       C  0.11309708  0.95514617  0.08664652    -0.17800
C1321       C  0.13748104  0.93088525  0.20193612    -0.17800
C1322       C  0.03733892  0.84149876  0.20622275    -0.17800
H1323       H  0.01326942  0.91027563  0.05033331     0.15100
H1324       H  0.06675324  0.96207937  0.05051642     0.15100
H1325       H  0.05705977  0.86992578  0.27595125     0.15100
H1326       H  0.11206169  0.91969829  0.27280139     0.15100
H1327       H  0.50587601  0.79957923  0.09366146     0.13400
H1328       H  0.51307730  0.78648483  0.15988267     0.13400
H1329       H  0.17450670  0.96415996  0.08847742     0.13400
H1330       H  0.18888251  0.95369098  0.15352103     0.13400
H1331       H  0.07565995  0.89761295  0.11235618     0.26700
H1332       H  0.08668609  0.88461939  0.16783327     0.26700
N1333       N  0.06375413  0.90597128  0.44249687    -0.36100
N1334       N  0.11659486  0.94092037  0.39689185    -0.56700
N1335       N  0.09112079  0.88004309  0.35564009    -0.36100
N1336       N  0.03590601  0.84959311  0.39963623    -0.56700
C1337       C  0.07715833  0.93490473  0.45509174     0.27500
C1338       C  0.03460026  0.89096649  0.45428459     0.27500
C1339       C  0.11767709  0.89846767  0.33826197     0.27500
C1340       C  0.07838200  0.85173855  0.34093551     0.27500
C1341       C  0.12662893  0.95012593  0.43040775     0.36100
C1342       C  0.13966312  0.94024464  0.38035707     0.36100
C1343       C  0.02151224  0.84007336  0.43159352     0.36100
C1344       C  0.03467482  0.82509181  0.38345414     0.36100
C1345       C  0.05590550  0.93893100  0.47375508    -0.21400
C1346       C  0.02886376  0.91114543  0.47307349    -0.21400
C1347       C  0.12293833  0.88180545  0.31310126    -0.21400
C1348       C  0.09854920  0.85238288  0.31495846    -0.21400
C1349       C  0.15510189  0.95335409  0.43574302    -0.22400
C1350       C  0.16394874  0.94790747  0.40318099    -0.22400
C1351       C  0.51337613  0.80930042  0.43729402    -0.22400
C1352       C  0.01930701  0.79978176  0.40520540    -0.22400
C1353       C  0.10922305  0.95463441  0.45571419    -0.17800
C1354       C  0.01656454  0.85877700  0.45588208    -0.17800
C1355       C  0.04946618  0.82567642  0.35082450    -0.17800
C1356       C  0.13759269  0.92967213  0.34592103    -0.17800
H1357       H  0.06205378  0.96027991  0.98773153     0.15100
H1358       H  0.00961971  0.90733572  0.98622961     0.15100
H1359       H  0.14282193  0.88967497  0.29616232     0.15100
H1360       H  0.09737863  0.83378038  0.29972546     0.15100
H1361       H  0.16761520  0.95824938  0.46063438     0.13400
H1362       H  0.18483851  0.94782033  0.39737666     0.13400
H1363       H  0.50336333  0.79587261  0.46109759     0.13400
H1364       H  0.51711881  0.77692686  0.40149795     0.13400
H1365       H  0.07555469  0.89558290  0.43290707     0.26700
H1366       H  0.08170900  0.88752236  0.37482185     0.26700
N1367       N  0.14227556  0.56888213  0.09898034    -0.36100
N1368       N  0.16982861  0.63090994  0.14124135    -0.56700
N1369       N  0.17632525  0.58723602  0.19659445    -0.36100
N1370       N  0.16116927  0.53710916  0.14678398    -0.56700
C1371       C  0.12712452  0.58173702  0.08497011     0.27500
C1372       C  0.13015021  0.54078777  0.08436905     0.27500
C1373       C  0.18056394  0.61055916  0.21763506     0.27500
C1374       C  0.18038430  0.56788075  0.21736916     0.27500
C1375       C  0.14473150  0.62590455  0.12252135     0.36100
C1376       C  0.16523948  0.63677271  0.17542344     0.36100
C1377       C  0.16434220  0.52773842  0.11411957     0.36100
C1378       C  0.18281704  0.53718381  0.16766567     0.36100
C1379       C  0.10403042  0.56124265  0.06262399    -0.21400
C1380       C  0.10591242  0.53515403  0.06227789    -0.21400
C1381       C  0.18578691  0.60544224  0.25254087    -0.21400
C1382       C  0.18521108  0.57825212  0.25252416    -0.21400
C1383       C  0.12282991  0.62432126  0.14602594    -0.22400
C1384       C  0.13631133  0.63265339  0.17915441    -0.22400
C1385       C  0.18862645  0.52274339  0.11367442    -0.22400
C1386       C  0.19973434  0.52756553  0.14810881    -0.22400
C1387       C  0.13723675  0.61290941  0.08800130    -0.17800
C1388       C  0.14469535  0.52347054  0.08555971    -0.17800
C1389       C  0.18665181  0.54565037  0.20407796    -0.17800
C1390       C  0.18245011  0.63735216  0.20510983    -0.17800
H1391       H  0.08824399  0.56521299  0.04745965     0.15100
H1392       H  0.09208789  0.51494148  0.04642107     0.15100
H1393       H  0.19040217  0.62005760  0.27552526     0.15100
H1394       H  0.19020726  0.56874438  0.27550110     0.15100
H1395       H  0.09911933  0.61670543  0.14007108     0.13400
H1396       H  0.12519882  0.63277735  0.20384220     0.13400
H1397       H  0.19844562  0.01699189  0.09057321     0.13400
H1398       H  0.21965521  0.02541521  0.15658445     0.13400
H1399       H  0.16321074  0.58077799  0.11208711     0.26700
H1400       H  0.17532611  0.58727038  0.16896656     0.26700
N1401       N  0.14841228  0.57161018  0.44261669    -0.36100
N1402       N  0.17677781  0.54507102  0.39974439    -0.56700
N1403       N  0.20603517  0.60290261  0.35830363    -0.36100
N1404       N  0.18289024  0.63681583  0.40868457    -0.56700
C1405       C  0.13452748  0.54255040  0.45462078     0.27500
C1406       C  0.13183271  0.58377880  0.45469302     0.27500
C1407       C  0.22085775  0.58901430  0.34432558     0.27500
C1408       C  0.22033744  0.63234990  0.34645802     0.27500
C1409       C  0.17241363  0.53054457  0.43151343     0.36100
C1410       C  0.19906507  0.54289938  0.38240545     0.36100
C1411       C  0.15520640  0.63081013  0.42151636     0.36100
C1412       C  0.18416911  0.64542881  0.37400018     0.36100
C1413       C  0.10785674  0.53575276  0.47250857    -0.21400
C1414       C  0.10625347  0.56198370  0.47271330    -0.21400
C1415       C  0.24553804  0.61041787  0.32441432    -0.21400
C1416       C  0.24544425  0.63748005  0.32609758    -0.21400
C1417       C  0.19340631  0.52114724  0.43526838    -0.22400
C1418       C  0.20912654  0.52753430  0.40346109    -0.22400
C1419       C  0.13781332  0.63174852  0.39355189    -0.22400
C1420       C  0.15658373  0.64252990  0.36404469    -0.22400
C1421       C  0.14880111  0.52489999  0.45609391    -0.17800
C1422       C  0.14183121  0.61505782  0.45370283    -0.17800
C1423       C  0.20872697  0.65289884  0.35005137    -0.17800
C1424       C  0.21363024  0.55804507  0.35029163    -0.17800
H1425       H  0.09250539  0.51448438  0.98414832     0.15100
H1426       H  0.08932397  0.56504528  0.98520074     0.15100
H1427       H  0.26302155  0.60766422  0.31135083     0.15100
H1428       H  0.26247274  0.65853377  0.31382013     0.15100
H1429       H  0.19589655  0.00960168  0.45687842     0.13400
H1430       H  0.22634888  0.02189806  0.39600206     0.13400
H1431       H  0.11369430  0.62445001  0.39418871     0.13400
H1432       H  0.14988257  0.64525626  0.33752436     0.13400
H1433       H  0.17055121  0.58410308  0.43240822     0.26700
H1434       H  0.18547454  0.59224027  0.37233344     0.26700
C1435       C  0.13719107  0.62997661  0.05481001     0.02800
C1436       C  0.12847386  0.65238703  0.05438350     0.02800
C1437       C  0.12482462  0.66315877  0.02130608    -0.17800
C1438       C  0.12816304  0.65142181  0.48799485     0.02800
C1439       C  0.13845996  0.63018069  0.48736780     0.02800
C1440       C  0.14434140  0.62148891  0.02139316    -0.17800
H1441       H  0.15316214  0.60603905  0.02156621     0.04800
H1442       H  0.11631809  0.67892651  0.02122977     0.04800
N1443       N  0.06617053  0.65732962  0.44337395    -0.36100
N1444       N  0.11904023  0.68515237  0.40355557    -0.56700
N1445       N  0.08979578  0.71077649  0.35702689    -0.36100
N1446       N  0.03460057  0.69288268  0.40701173    -0.56700
C1447       C  0.08123468  0.64400612  0.45712577     0.27500
C1448       C  0.03674581  0.64043872  0.45327791     0.27500
C1449       C  0.11732165  0.72085011  0.34100749     0.27500
C1450       C  0.07727654  0.72680948  0.34339112     0.27500
C1451       C  0.13133821  0.68017184  0.43269971     0.36100
C1452       C  0.14225840  0.70258967  0.38191461     0.36100
C1453       C  0.01424636  0.66400468  0.41797286     0.36100
C1454       C  0.02765616  0.69463456  0.37216915     0.36100
C1455       C  0.06072990  0.61765534  0.47503718    -0.21400
C1456       C  0.03252325  0.61559169  0.47296018    -0.21400
C1457       C  0.12305337  0.74423516  0.31781552    -0.21400
C1458       C  0.09830787  0.74853400  0.31985391    -0.21400
C1459       C  0.16298447  0.69576708  0.43042915    -0.22400
C1460       C  0.16994817  0.70939497  0.39733234    -0.22400
C1461       C  0.49610892  0.64608094  0.38963614    -0.22400
C1462       C  0.00481979  0.66634684  0.36044884    -0.22400
C1463       C  0.11348143  0.65751953  0.45741456    -0.17800
C1464       C  0.01586034  0.65073734  0.45055829    -0.17800
C1465       C  0.04599090  0.71889513  0.34837465    -0.17800
C1466       C  0.13801524  0.71038306  0.34769784    -0.17800
H1467       H  0.06497184  0.60255397  0.98989546     0.15100
H1468       H  0.01087495  0.59926123  0.98691693     0.15100
H1469       H  0.14337143  0.75740717  0.30175773     0.15100
H1470       H  0.09657540  0.76580703  0.30515346     0.15100
H1471       H  0.17898553  0.69522698  0.44912933     0.13400
H1472       H  0.19263142  0.72256520  0.38596710     0.13400
H1473       H  0.47951064  0.62188968  0.38924249     0.13400
H1474       H  0.49558029  0.65932097  0.33408366     0.13400
H1475       H  0.07578122  0.67946947  0.43360048     0.26700
H1476       H  0.07879752  0.69178544  0.37358568     0.26700
N1477       N  0.06833621  0.66119711  0.09617468    -0.36100
N1478       N  0.12070421  0.68585588  0.14173680    -0.56700
N1479       N  0.08819369  0.70275704  0.19033047    -0.36100
N1480       N  0.03421926  0.67711765  0.14344497    -0.56700
C1481       C  0.08265937  0.64648742  0.08495143     0.27500
C1482       C  0.03947602  0.64576162  0.08332500     0.27500
C1483       C  0.11050890  0.70411933  0.21130057     0.27500
C1484       C  0.06504053  0.69869640  0.21202450     0.27500
C1485       C  0.13284215  0.68141153  0.11177137     0.36100
C1486       C  0.14406394  0.70401553  0.16368240     0.36100
C1487       C  0.02322979  0.67808394  0.11095611     0.36100
C1488       C  0.03186460  0.69749979  0.16416782     0.36100
C1489       C  0.06217751  0.62045056  0.06616477    -0.21400
C1490       C  0.03479588  0.62012129  0.06493433    -0.21400
C1491       C  0.10102021  0.69991567  0.24660433    -0.21400
C1492       C  0.07240607  0.69681676  0.24719542    -0.21400
C1493       C  0.16450867  0.69720115  0.11436143    -0.22400
C1494       C  0.17164557  0.71136128  0.14757726    -0.22400
C1495       C  0.51660700  0.70140267  0.10947010    -0.22400
C1496       C  0.01953030  0.71186645  0.14468394    -0.22400
C1497       C  0.11476229  0.65950322  0.08547818    -0.17800
C1498       C  0.02003072  0.65796171  0.08319082    -0.17800
C1499       C  0.04031997  0.70176264  0.20049626    -0.17800
C1500       C  0.13971426  0.71085054  0.19916573    -0.17800
H1501       H  0.06702276  0.60432175  0.05322605     0.15100
H1502       H  0.01425544  0.60373780  0.05097994     0.15100
H1503       H  0.11345092  0.69923719  0.26953537     0.15100
H1504       H  0.05899291  0.69410033  0.27086483     0.15100
H1505       H  0.18054146  0.69705092  0.09534482     0.13400
H1506       H  0.19433296  0.72465458  0.15897162     0.13400
H1507       H  0.50900177  0.70883677  0.08668894     0.13400
H1508       H  0.51803299  0.73154843  0.15261187     0.13400
H1509       H  0.07905212  0.68342207  0.10615803     0.26700
H1510       H  0.09034167  0.70846886  0.16330202     0.26700
C1511       C  0.49735264  0.64804719  0.48395189     0.02800
C1512       C  0.46498260  0.63309053  0.48609101     0.02800
C1513       C  0.45088606  0.62929695  0.02010022    -0.17800
C1514       C  0.46760354  0.63626014  0.05203946     0.02800
C1515       C  0.50005186  0.65278707  0.05037029     0.02800
C1516       C  0.01441914  0.65994922  0.01730343    -0.17800
H1517       H  0.03921038  0.67136588  0.01616031     0.04800
H1518       H  0.42604786  0.61696056  0.02151630     0.04800
C1519       C  0.14260362  0.50497560  0.05352331     0.02800
C1520       C  0.12803285  0.97368289  0.05383427     0.02800
C1521       C  0.12040892  0.95820128  0.02088913    -0.17800
C1522       C  0.12433743  0.97347036  0.48789848     0.02800
C1523       C  0.14296677  0.50548006  0.48892011     0.02800
C1524       C  0.15273470  0.52055493  0.02074013    -0.17800
H1525       H  0.16569196  0.54530489  0.02104039     0.04800
H1526       H  0.10698192  0.93346430  0.02085673     0.04800
C1527       C  0.46538195  0.83164207  0.48916133     0.02800
C1528       C  0.49764889  0.84469210  0.48884521     0.02800
C1529       C  0.01403224  0.85302208  0.02182772    -0.17800
C1530       C  0.49751567  0.84497438  0.05510002     0.02800
C1531       C  0.46506032  0.82955252  0.05459292     0.02800
C1532       C  0.44977703  0.82175823  0.02160794    -0.17800
H1533       H  0.42495792  0.81049481  0.02133167     0.04800
H1534       H  0.03886770  0.86488570  0.02182424     0.04800
C1535       C  0.33676531  0.82945514  0.05250330     0.02800
C1536       C  0.31988780  0.84493256  0.05314697     0.02800
C1537       C  0.30998624  0.85048330  0.02051948    -0.17800
C1538       C  0.31924028  0.84506197  0.48783911     0.02800
C1539       C  0.33621723  0.82989467  0.48605143     0.02800
C1540       C  0.34330544  0.82110359  0.01885237    -0.17800
H1541       H  0.35660017  0.80981402  0.01835794     0.04800
H1542       H  0.29711379  0.86223940  0.02102108     0.04800
O1543       O  0.28929038  0.81842913  0.28947216    -0.79600
O1544       O  0.20772655  0.69706656  0.32498156    -0.79700
O1545       O  0.18680151  0.73644043  0.31998096    -0.79700
O1546       O  0.28788579  0.73474908  0.29443951    -0.79600
O1547       O  0.15362989  0.69015906  0.29996063    -0.79700
O1548       O  0.27360716  0.76393752  0.32038568    -0.79600
O1549       O  0.23223135  0.67955884  0.29498041    -0.79600
O1550       O  0.24251417  0.79340167  0.31330350    -0.79700
C1551       C  0.26969621  0.81722584  0.31159906     1.10100
C1552       C  0.21732084  0.67838194  0.32275548     1.09900
C1553       C  0.15981635  0.71282115  0.32023945     1.10100
C1554       C  0.29047186  0.75222047  0.32045237     1.10000
O1555       O  0.30384569  0.77968082  0.25177584    -0.79600
O1556       O  0.17672869  0.70532354  0.23082728    -0.79700
O1557       O  0.22476469  0.79440141  0.23969864    -0.79600
O1558       O  0.22348925  0.68614675  0.22028338    -0.79600
O1559       O  0.18424714  0.66542009  0.25724374    -0.79700
O1560       O  0.26515665  0.79348233  0.22486203    -0.79600
O1561       O  0.27893605  0.73909564  0.21801004    -0.79600
O1562       O  0.17194263  0.74283017  0.24670348    -0.79700
Co1563     Co  0.26653773  0.77756229  0.27296276     1.51500
Co1564     Co  0.19306628  0.70519611  0.27848174     1.51700
Co1565     Co  0.20960593  0.76326593  0.27792047     1.51600
Co1566     Co  0.25416436  0.71192635  0.25720135     1.51500
O1567       O  0.23253133  0.73715942  0.26138321    -1.41600
C1568       C  0.30251419  0.76453537  0.22417602     1.10000
C1569       C  0.16458793  0.72079412  0.22592936     1.10100
C1570       C  0.24760085  0.80368607  0.21984094     1.10000
C1571       C  0.19701324  0.66448093  0.22836024     1.10000
O1572       O  0.26689492  0.97053646  0.22769330    -0.79600
O1573       O  0.18913775  0.52183219  0.25765003    -0.79700
O1574       O  0.17147274  0.93001812  0.24649078    -0.79700
O1575       O  0.28163532  0.53876928  0.21792578    -0.79600
O1576       O  0.17742570  0.97311378  0.23236832    -0.79700
O1577       O  0.30511475  0.52336922  0.25379022    -0.79600
O1578       O  0.22749412  0.53825903  0.21975715    -0.79600
O1579       O  0.22378836  0.92990425  0.23847630    -0.79700
C1580       C  0.24802010  0.94315996  0.22070772     1.10100
C1581       C  0.20172087  0.53455454  0.22821334     1.09900
C1582       C  0.16388201  0.94524416  0.22724757     1.10100
C1583       C  0.30469882  0.53649004  0.22522764     1.10000
O1584       O  0.27270613  0.51024755  0.32201244    -0.79600
O1585       O  0.15722994  0.96873219  0.30189473    -0.79700
O1586       O  0.24180130  0.94687253  0.31260005    -0.79600
O1587       O  0.23628868  0.55458324  0.29443020    -0.79600
O1588       O  0.21276187  0.51289740  0.32529191    -0.79700
O1589       O  0.28999193  0.97160010  0.29260276    -0.79600
O1590       O  0.28946976  0.55279137  0.29337885    -0.79600
O1591       O  0.18728772  0.95134755  0.31997615    -0.79700
Co1592     Co  0.26742368  0.98883122  0.27502692     1.51500
Co1593     Co  0.19635669  0.99015507  0.27933539     1.51700
Co1594     Co  0.20950133  0.94629254  0.27738547     1.51600
Co1595     Co  0.25700395  0.54252145  0.25647981     1.51500
O1596       O  0.23446644  0.99563256  0.26101483    -1.41600
C1597       C  0.29065884  0.53882547  0.32070171     1.10000
C1598       C  0.16127458  0.95012932  0.32063074     1.10100
C1599       C  0.26952563  0.95160328  0.31253466     1.10000
C1600       C  0.22261498  0.54134709  0.32306703     1.10000
O1601       O  0.46707519  0.68495923  0.22845015    -0.79600
O1602       O  0.01363694  0.81516128  0.26120796    -0.79700
O1603       O  0.42585598  0.73318348  0.22846324    -0.79700
O1604       O  0.02874427  0.73918195  0.21871207    -0.79600
O1605       O  0.45701518  0.78002311  0.24453563    -0.79700
O1606       O  0.01324576  0.69975287  0.25410358    -0.79600
O1607       O  0.02906836  0.79312093  0.22209356    -0.79600
O1608       O  0.42319460  0.68004305  0.24238192    -0.79700
C1609       C  0.43891967  0.67245155  0.22340367     1.10100
C1610       C  0.02570652  0.81522734  0.23104206     1.09900
C1611       C  0.43630800  0.76115541  0.22400690     1.10100
C1612       C  0.02671634  0.71396819  0.22562727     1.10000
O1613       O  0.00180543  0.71968140  0.32333755    -0.79600
O1614       O  0.46376973  0.79672856  0.31321928    -0.79700
O1615       O  0.43492075  0.69749406  0.31868967    -0.79600
O1616       O  0.04579179  0.79950245  0.29562097    -0.79600
O1617       O  0.00507682  0.77948210  0.32820747    -0.79700
O1618       O  0.45116011  0.66845723  0.29763371    -0.79600
O1619       O  0.04439292  0.74454811  0.29406739    -0.79600
O1620       O  0.42991336  0.74740681  0.30540841    -0.79700
Co1621     Co  0.48392359  0.70483736  0.27459189     1.51500
Co1622     Co  0.47921010  0.77577945  0.28678180     1.51700
Co1623     Co  0.43401184  0.71718234  0.27260979     1.51600
Co1624     Co  0.03348532  0.76737909  0.25766078     1.51500
O1625       O  0.48331821  0.74268060  0.26493749    -1.41600
C1626       C  0.03016636  0.72896774  0.32142481     1.10000
C1627       C  0.43784911  0.77327375  0.32009483     1.10100
C1628       C  0.43526659  0.67286882  0.31984651     1.10000
C1629       C  0.03316116  0.79917031  0.32489405     1.10000
N1630       N  0.31534265  0.90711640  0.59884645    -0.36100
N1631       N  0.29106854  0.85291059  0.64349636    -0.56700
N1632       N  0.25918356  0.87929158  0.68468871    -0.36100
N1633       N  0.29110173  0.93706312  0.64366387    -0.56700
C1634       C  0.33038831  0.89316816  0.58685329     0.27500
C1635       C  0.33031855  0.93619794  0.58690007     0.27500
C1636       C  0.25374357  0.85502975  0.70502190     0.27500
C1637       C  0.25407515  0.89823881  0.70536300     0.27500
C1638       C  0.29400661  0.84296403  0.61095147     0.36100
C1639       C  0.26736057  0.82864401  0.65954084     0.36100
C1640       C  0.29427615  0.95024264  0.61138093     0.36100
C1641       C  0.26839100  0.93870478  0.66053872     0.36100
C1642       C  0.35615123  0.91410388  0.56813184    -0.21400
C1643       C  0.35610548  0.94131959  0.56816991    -0.21400
C1644       C  0.24418014  0.85828483  0.73867043    -0.21400
C1645       C  0.24426348  0.88528039  0.73880674    -0.21400
C1646       C  0.27110171  0.81302756  0.60577380    -0.22400
C1647       C  0.25500485  0.80344420  0.63733735    -0.22400
C1648       C  0.27245228  0.95865721  0.60721489    -0.22400
C1649       C  0.25695790  0.95269634  0.63917680    -0.22400
C1650       C  0.31740051  0.86098662  0.58638132    -0.17800
C1651       C  0.31734707  0.95521654  0.58651586    -0.17800
C1652       C  0.25675340  0.92617132  0.69425844    -0.17800
C1653       C  0.25575076  0.82946340  0.69332145    -0.17800
H1654       H  0.37230758  0.90970955  0.55437796     0.15100
H1655       H  0.37222929  0.96203069  0.55448789     0.15100
H1656       H  0.23814464  0.84329406  0.76142081     0.15100
H1657       H  0.23821598  0.89429717  0.76155772     0.15100
H1658       H  0.26617484  0.79974811  0.58149382     0.13400
H1659       H  0.23525319  0.78123007  0.64255100     0.13400
H1660       H  0.26795922  0.96777521  0.58344166     0.13400
H1661       H  0.23818682  0.95636226  0.64522170     0.13400
H1662       H  0.29298684  0.89584340  0.60852221     0.26700
H1663       H  0.26423987  0.88180241  0.65753822     0.26700
N1664       N  0.31251736  0.90652241  0.94578047    -0.36100
N1665       N  0.29783673  0.94058298  0.89701125    -0.56700
N1666       N  0.28180812  0.89140409  0.84736519    -0.36100
N1667       N  0.29570639  0.85828638  0.89763868    -0.56700
C1668       C  0.32708934  0.93531490  0.95854002     0.27500
C1669       C  0.32730821  0.89262644  0.95821875     0.27500
C1670       C  0.28641640  0.91529570  0.82728319     0.27500
C1671       C  0.28775560  0.87323440  0.82682285     0.27500
C1672       C  0.29418602  0.94986134  0.92921149     0.36100
C1673       C  0.27757496  0.94177435  0.87513503     0.36100
C1674       C  0.29516868  0.84433921  0.92819013     0.36100
C1675       C  0.27919672  0.83656176  0.87360602     0.36100
C1676       C  0.35227632  0.94032734  0.97839918    -0.21400
C1677       C  0.35246529  0.91321649  0.97810753    -0.21400
C1678       C  0.29659748  0.91306036  0.79368081    -0.21400
C1679       C  0.29739557  0.88623359  0.79336247    -0.21400
C1680       C  0.27000877  0.95515517  0.92867441    -0.22400
C1681       C  0.26017470  0.95132874  0.89350822    -0.22400
C1682       C  0.27693822  0.81299229  0.92439269    -0.22400
C1683       C  0.26697053  0.80794878  0.88921184    -0.22400
C1684       C  0.31415426  0.95420485  0.95728661    -0.17800
C1685       C  0.31502468  0.86072188  0.95633873    -0.17800
C1686       C  0.28033420  0.84372203  0.83726740    -0.17800
C1687       C  0.27750930  0.93603274  0.83866054    -0.17800
H1688       H  0.36924004  0.96063488  0.49157085     0.15100
H1689       H  0.36841286  0.90780794  0.49146246     0.15100
H1690       H  0.30170945  0.92838401  0.77136745     0.15100
H1691       H  0.30320050  0.87684666  0.77072377     0.15100
H1692       H  0.26051705  0.96099484  0.95113546     0.13400
H1693       H  0.24202813  0.95441124  0.88305757     0.13400
H1694       H  0.27320112  0.79575746  0.94386963     0.13400
H1695       H  0.25376939  0.78592663  0.87638925     0.13400
H1696       H  0.29066397  0.89553245  0.93445092     0.26700
H1697       H  0.27078823  0.88559072  0.87213892     0.26700
N1698       N  0.39498181  0.57461914  0.94273907    -0.36100
N1699       N  0.42322969  0.62833599  0.90131692    -0.56700
N1700       N  0.37079795  0.59929088  0.85310536    -0.36100
N1701       N  0.34089110  0.54319349  0.89645301    -0.56700
C1702       C  0.42420618  0.58865544  0.95458239     0.27500
C1703       C  0.38141366  0.54510728  0.95268735     0.27500
C1704       C  0.38750539  0.62709995  0.83774913     0.27500
C1705       C  0.34240610  0.58571613  0.83833927     0.27500
C1706       C  0.44039669  0.63944136  0.93099399     0.36100
C1707       C  0.43050860  0.65229242  0.88026317     0.36100
C1708       C  0.33097038  0.53027399  0.92907411     0.36100
C1709       C  0.31653953  0.54178122  0.87969251     0.36100
C1710       C  0.42971198  0.56755618  0.97103858    -0.21400
C1711       C  0.40257166  0.53993070  0.96984389    -0.21400
C1712       C  0.36978784  0.63156736  0.81337555    -0.21400
C1713       C  0.34132204  0.60604528  0.81428793    -0.21400
C1714       C  0.45762751  0.67102341  0.92972256    -0.22400
C1715       C  0.45211234  0.67913931  0.89667937    -0.22400
C1716       C  0.30087319  0.52245215  0.93383082    -0.22400
C1717       C  0.29140197  0.52847896  0.90193680    -0.22400
C1718       C  0.44388393  0.62066593  0.95556817    -0.17800
C1719       C  0.34935091  0.52580078  0.95399528    -0.17800
C1720       C  0.31737070  0.55608145  0.84691140    -0.17800
C1721       C  0.41757155  0.64993575  0.84663380    -0.17800
H1722       H  0.45006618  0.57044869  0.48455747     0.15100
H1723       H  0.39723289  0.51782828  0.48327126     0.15100
H1724       H  0.37613375  0.65197792  0.79813291     0.15100
H1725       H  0.32200094  0.60448219  0.80025479     0.15100
H1726       H  0.47416159  0.68629636  0.94916190     0.13400
H1727       H  0.46252099  0.70204602  0.88611678     0.13400
H1728       H  0.28538419  0.01189334  0.95762410     0.13400
H1729       H  0.26935891  0.52567769  0.89655960     0.13400
H1730       H  0.38331539  0.58554190  0.93455578     0.26700
H1731       H  0.37911214  0.58944493  0.87065365     0.26700
N1732       N  0.40217362  0.57378713  0.59846582    -0.36100
N1733       N  0.43415286  0.62718693  0.64416323    -0.56700
N1734       N  0.38028751  0.59562326  0.69014739    -0.36100
N1735       N  0.35002767  0.54078082  0.64504097    -0.56700
C1736       C  0.43090446  0.58863536  0.58518814     0.27500
C1737       C  0.38760660  0.54524016  0.58475707     0.27500
C1738       C  0.40168294  0.61783813  0.71098697     0.27500
C1739       C  0.36001959  0.57342375  0.71191666     0.27500
C1740       C  0.44395358  0.63776908  0.61089166     0.36100
C1741       C  0.43329812  0.64970387  0.66224987     0.36100
C1742       C  0.33874485  0.53096640  0.61200669     0.36100
C1743       C  0.32758864  0.54114839  0.66391379     0.36100
C1744       C  0.43536003  0.56863440  0.56428474    -0.21400
C1745       C  0.40785885  0.54116582  0.56387753    -0.21400
C1746       C  0.39583225  0.60912452  0.74643642    -0.21400
C1747       C  0.36927898  0.58103418  0.74712468    -0.21400
C1748       C  0.44771671  0.66654126  0.60720425    -0.22400
C1749       C  0.44213976  0.67470902  0.64047702    -0.22400
C1750       C  0.30961467  0.52663714  0.60919720    -0.22400
C1751       C  0.30189642  0.53187158  0.64279757    -0.22400
C1752       C  0.44925944  0.62088365  0.58483455    -0.17800
C1753       C  0.35535163  0.52620156  0.58528758    -0.17800
C1754       C  0.33133218  0.54996304  0.69995298    -0.17800
C1755       C  0.42375547  0.64668306  0.69798891    -0.17800
H1756       H  0.45553138  0.57402857  0.54882132     0.15100
H1757       H  0.40273817  0.52121336  0.54822584     0.15100
H1758       H  0.40889682  0.62182518  0.76938009     0.15100
H1759       H  0.35779868  0.56828088  0.77085398     0.15100
H1760       H  0.45372711  0.68007070  0.58310456     0.13400
H1761       H  0.44301086  0.69579507  0.64739507     0.13400
H1762       H  0.29571162  0.01906149  0.58630360     0.13400
H1763       H  0.28057913  0.53050546  0.65007887     0.13400
H1764       H  0.39127413  0.58432748  0.61024606     0.26700
H1765       H  0.37714135  0.59767456  0.66296255     0.26700
C1766       C  0.33948136  0.50695705  0.55336734     0.02800
C1767       C  0.32235932  0.97446904  0.55407446     0.02800
C1768       C  0.31112335  0.95885075  0.52161972    -0.17800
C1769       C  0.31777400  0.97359630  0.98874165     0.02800
C1770       C  0.33610521  0.50707641  0.98731625     0.02800
C1771       C  0.34415038  0.52214975  0.52049344    -0.17800
H1772       H  0.35715792  0.54689877  0.52029771     0.04800
H1773       H  0.29838711  0.93408938  0.52192992     0.04800
N1774       N  0.39937585  0.82685411  0.94275430    -0.36100
N1775       N  0.32820384  0.78722161  0.90830082    -0.56700
N1776       N  0.36745588  0.77083913  0.85753162    -0.36100
N1777       N  0.43107066  0.80743201  0.89787754    -0.57300
C1778       C  0.38500268  0.84095352  0.95560441     0.27500
C1779       C  0.42785745  0.84093785  0.95712648     0.27500
C1780       C  0.33850246  0.75407359  0.84449304     0.27500
C1781       C  0.38492736  0.76104321  0.84162133     0.27500
C1782       C  0.33906233  0.81646063  0.91950080     0.36100
C1783       C  0.32210013  0.78668429  0.87266764     0.36100
C1784       C  0.44228439  0.80698737  0.93034736     0.36100
C1785       C  0.42901057  0.78349765  0.88045188     0.36100
C1786       C  0.40479129  0.86522213  0.97709837    -0.21400
C1787       C  0.43209573  0.86533454  0.97789224    -0.21400
C1788       C  0.33732335  0.73178127  0.82175901    -0.21400
C1789       C  0.36667097  0.73655770  0.81947719    -0.21400
C1790       C  0.34346277  0.83478020  0.89020179    -0.22400
C1791       C  0.33166260  0.81587502  0.86089929    -0.22400
C1792       C  0.44624386  0.78218983  0.93387485    -0.22400
C1793       C  0.43866401  0.76759440  0.90135904    -0.22400
C1794       C  0.35319890  0.82858272  0.95296740    -0.17800
C1795       C  0.44699084  0.82820806  0.95684069    -0.17800
C1796       C  0.41700404  0.77492168  0.84644883    -0.17800
C1797       C  0.31559329  0.76236010  0.84877096    -0.17800
H1798       H  0.39872493  0.88050963  0.49132523     0.15100
H1799       H  0.45138806  0.88076586  0.49356232     0.15100
H1800       H  0.31785451  0.71419109  0.80737371     0.15100
H1801       H  0.37343822  0.72333490  0.80328119     0.15100
H1802       H  0.35456857  0.85941422  0.89007689     0.13400
H1803       H  0.33266901  0.82308191  0.83352700     0.13400
H1804       H  0.45236447  0.77465624  0.95780953     0.13400
H1805       H  0.43844561  0.74679811  0.89445796     0.13400
H1806       H  0.38819391  0.80551520  0.93038788     0.26700
H1807       H  0.37591173  0.79048375  0.87311733     0.26700
N1808       N  0.39872167  0.82334535  0.59822490    -0.36100
N1809       N  0.43063398  0.80211664  0.64537087    -0.56700
N1810       N  0.37748334  0.77967105  0.69032058    -0.36100
N1811       N  0.34760598  0.80447791  0.64410167    -0.56700
C1812       C  0.42815695  0.83843257  0.58746292     0.27500
C1813       C  0.38507004  0.83824905  0.58515119     0.27500
C1814       C  0.39840541  0.77832380  0.71151523     0.27500
C1815       C  0.35650478  0.78066881  0.71178880     0.27500
C1816       C  0.44157164  0.80253450  0.61247888     0.36100
C1817       C  0.43134449  0.77961150  0.66347283     0.36100
C1818       C  0.33580010  0.80440975  0.61170345     0.36100
C1819       C  0.32475158  0.78227959  0.66338117     0.36100
C1820       C  0.43378643  0.86422263  0.56865993    -0.21400
C1821       C  0.40641127  0.86403878  0.56710483    -0.21400
C1822       C  0.39115411  0.77937573  0.74688032    -0.21400
C1823       C  0.36458824  0.78066288  0.74719423    -0.21400
C1824       C  0.44783607  0.77914113  0.60895756    -0.22400
C1825       C  0.44253798  0.76527609  0.64208073    -0.22400
C1826       C  0.30568919  0.78110192  0.60973636    -0.22400
C1827       C  0.29815078  0.76780983  0.64316546    -0.22400
C1828       C  0.44666866  0.82497634  0.58707955    -0.17800
C1829       C  0.35299049  0.82559830  0.58479850    -0.17800
C1830       C  0.32833461  0.77673878  0.69940930    -0.17800
C1831       C  0.42141156  0.77262452  0.69897469    -0.17800
H1832       H  0.45495983  0.88040731  0.55575643     0.15100
H1833       H  0.40234238  0.88028368  0.55332839     0.15100
H1834       H  0.40348043  0.77876423  0.76991136     0.15100
H1835       H  0.35232519  0.78071620  0.77081429     0.15100
H1836       H  0.45563317  0.77297814  0.58515459     0.13400
H1837       H  0.44538484  0.74626664  0.64915725     0.13400
H1838       H  0.29103500  0.77395646  0.58645500     0.13400
H1839       H  0.27611380  0.74886662  0.65091944     0.13400
H1840       H  0.38729999  0.80111935  0.60810309     0.26700
H1841       H  0.37521105  0.77579635  0.66279681     0.26700
N1842       N  0.06475141  0.90754052  0.59999594    -0.36100
N1843       N  0.02921487  0.85788793  0.64927236    -0.56700
N1844       N  0.08437875  0.88788396  0.69466624    -0.36100
N1845       N  0.11753587  0.93891035  0.64579690    -0.56700
C1846       C  0.03601902  0.89332277  0.58673533     0.27500
C1847       C  0.07959259  0.93608734  0.58669505     0.27500
C1848       C  0.06161307  0.86928289  0.71730352     0.27500
C1849       C  0.10757258  0.90944328  0.71453224     0.27500
C1850       C  0.01963689  0.84539410  0.61645562     0.36100
C1851       C  0.02786876  0.83580263  0.67044642     0.36100
C1852       C  0.12908362  0.95049534  0.61323838     0.36100
C1853       C  0.14050164  0.93989658  0.66514560     0.36100
C1854       C  0.03185933  0.91345653  0.56611224    -0.21400
C1855       C  0.05945412  0.94066080  0.56626984    -0.21400
C1856       C  0.07000056  0.87988067  0.75197386    -0.21400
C1857       C  0.09885829  0.90556641  0.75001346    -0.21400
C1858       C  0.51416785  0.81410197  0.61571297    -0.22400
C1859       C  0.01771897  0.80917514  0.65079475    -0.22400
C1860       C  0.15932421  0.95777294  0.61135708    -0.22400
C1861       C  0.16697484  0.95214801  0.64488095    -0.22400
C1862       C  0.01668089  0.86141245  0.58754826    -0.17800
C1863       C  0.11185702  0.95458981  0.58635472    -0.17800
C1864       C  0.13707426  0.93024631  0.70106257    -0.17800
C1865       C  0.03658087  0.84069542  0.70689051    -0.17800
H1866       H  0.01165256  0.90849768  0.55104072     0.15100
H1867       H  0.06474637  0.96079116  0.55114964     0.15100
H1868       H  0.05709803  0.86990379  0.77616699     0.15100
H1869       H  0.11206723  0.91969298  0.77209509     0.15100
H1870       H  0.50779558  0.79890802  0.59296016     0.13400
H1871       H  0.51517097  0.78607003  0.65923871     0.13400
H1872       H  0.17419770  0.96615255  0.58828965     0.13400
H1873       H  0.18901788  0.95568262  0.65304530     0.13400
H1874       H  0.07517753  0.89647128  0.61164274     0.26700
H1875       H  0.08589094  0.88352133  0.66767804     0.26700
N1876       N  0.06528562  0.90656983  0.94272055    -0.36100
N1877       N  0.11755305  0.94112091  0.89679128    -0.56700
N1878       N  0.09153719  0.87983445  0.85586100    -0.36100
N1879       N  0.03628329  0.84979513  0.89975198    -0.56700
C1880       C  0.07895279  0.93550762  0.95532528     0.27500
C1881       C  0.03601013  0.89196161  0.95407573     0.27500
C1882       C  0.11769632  0.89828937  0.83780023     0.27500
C1883       C  0.07844633  0.85153049  0.84098876     0.27500
C1884       C  0.12810541  0.95036919  0.93015972     0.36100
C1885       C  0.14031471  0.94038854  0.87956946     0.36100
C1886       C  0.02306111  0.84096604  0.93236996     0.36100
C1887       C  0.03577336  0.82531208  0.88454893     0.36100
C1888       C  0.05781179  0.93994987  0.97359716    -0.21400
C1889       C  0.03049861  0.91242040  0.97257563    -0.21400
C1890       C  0.12243195  0.88158136  0.81216674    -0.21400
C1891       C  0.09802207  0.85215995  0.81426578    -0.21400
C1892       C  0.15662174  0.95353760  0.93473318    -0.22400
C1893       C  0.16497364  0.94812412  0.90181131    -0.22400
C1894       C  0.51359181  0.80887681  0.93775364    -0.22400
C1895       C  0.02219405  0.80074670  0.90761774    -0.22400
C1896       C  0.11104049  0.95491897  0.95594669    -0.17800
C1897       C  0.01774910  0.85982052  0.95591529    -0.17800
C1898       C  0.04976312  0.82549608  0.85152570    -0.17800
C1899       C  0.13760807  0.92960054  0.84509588    -0.17800
H1900       H  0.05997080  0.95914507  0.48804521     0.15100
H1901       H  0.00803479  0.90575180  0.48705484     0.15100
H1902       H  0.14190818  0.88946532  0.79455430     0.15100
H1903       H  0.09637828  0.83356050  0.79857174     0.15100
H1904       H  0.16949674  0.95838085  0.95934143     0.13400
H1905       H  0.18577505  0.94805073  0.89541714     0.13400
H1906       H  0.50364297  0.79558194  0.96166110     0.13400
H1907       H  0.51719311  0.77631334  0.90209777     0.13400
H1908       H  0.07686389  0.89589799  0.93345122     0.26700
H1909       H  0.08270114  0.88724272  0.87562810     0.26700
N1910       N  0.14145801  0.56882113  0.60000868    -0.36100
N1911       N  0.16978019  0.63026498  0.64074111    -0.56700
N1912       N  0.17604171  0.58664595  0.69713814    -0.36100
N1913       N  0.16028548  0.53652464  0.64832368    -0.56700
C1914       C  0.12671816  0.58186112  0.58525993     0.27500
C1915       C  0.12917032  0.54057427  0.58581885     0.27500
C1916       C  0.18048703  0.61018989  0.71768292     0.27500
C1917       C  0.18009639  0.56749171  0.71824515     0.27500
C1918       C  0.14514245  0.62653376  0.62209428     0.36100
C1919       C  0.16568880  0.63642253  0.67491569     0.36100
C1920       C  0.16342769  0.52744304  0.61551516     0.36100
C1921       C  0.18220902  0.53671856  0.66882608     0.36100
C1922       C  0.10362301  0.56129067  0.56300566    -0.21400
C1923       C  0.10511595  0.53499358  0.56342259    -0.21400
C1924       C  0.18568673  0.60533032  0.75280960    -0.21400
C1925       C  0.18504818  0.57813222  0.75325760    -0.21400
C1926       C  0.12385429  0.62618629  0.64568537    -0.22400
C1927       C  0.13747014  0.63402719  0.67878753    -0.22400
C1928       C  0.18784352  0.52265477  0.61466835    -0.22400
C1929       C  0.19919510  0.52742026  0.64894265    -0.22400
C1930       C  0.13697797  0.61311342  0.58785708    -0.17800
C1931       C  0.14376190  0.52328432  0.58705096    -0.17800
C1932       C  0.18645166  0.54535918  0.70510805    -0.17800
C1933       C  0.18329927  0.63712366  0.70423641    -0.17800
H1934       H  0.08809264  0.56532456  0.54740309     0.15100
H1935       H  0.09127989  0.51471905  0.54767597     0.15100
H1936       H  0.19075060  0.62022731  0.77559700     0.15100
H1937       H  0.19027046  0.56889138  0.77632517     0.15100
H1938       H  0.10035973  0.61954753  0.63987746     0.13400
H1939       H  0.12681285  0.63498003  0.70348171     0.13400
H1940       H  0.19875612  0.01881117  0.58845701     0.13400
H1941       H  0.22118578  0.02774846  0.65403718     0.13400
H1942       H  0.16237597  0.58060088  0.61318861     0.26700
H1943       H  0.17538055  0.58669433  0.66948377     0.26700
N1944       N  0.14929951  0.57219830  0.94267392    -0.36100
N1945       N  0.17857714  0.54635096  0.89981808    -0.56700
N1946       N  0.20720660  0.60306515  0.85852703    -0.36100
N1947       N  0.18295658  0.63605182  0.90881969    -0.56700
C1948       C  0.13525071  0.54295135  0.95398475     0.27500
C1949       C  0.13266011  0.58421877  0.95510721     0.27500
C1950       C  0.22224834  0.58949627  0.84444027     0.27500
C1951       C  0.22104355  0.63237025  0.84661574     0.27500
C1952       C  0.17297351  0.53053105  0.93074351     0.36100
C1953       C  0.19990947  0.54299374  0.88191021     0.36100
C1954       C  0.15586304  0.63129331  0.92226890     0.36100
C1955       C  0.18398427  0.64441568  0.87410880     0.36100
C1956       C  0.10845833  0.53593055  0.97174602    -0.21400
C1957       C  0.10693237  0.56217971  0.97264133    -0.21400
C1958       C  0.24668777  0.61105705  0.82431483    -0.21400
C1959       C  0.24614655  0.63789654  0.82599227    -0.21400
C1960       C  0.19222918  0.51892775  0.93342445    -0.22400
C1961       C  0.20787735  0.52519633  0.90162142    -0.22400
C1962       C  0.13850164  0.63287115  0.89475559    -0.22400
C1963       C  0.15677202  0.64280974  0.86490882    -0.22400
C1964       C  0.14934865  0.52513397  0.95513726    -0.17800
C1965       C  0.14229693  0.61542452  0.95424108    -0.17800
C1966       C  0.20849236  0.65198416  0.84990119    -0.17800
C1967       C  0.21512094  0.55857062  0.85027884    -0.17800
H1968       H  0.09207515  0.51452451  0.48545339     0.15100
H1969       H  0.08877828  0.56505105  0.48528532     0.15100
H1970       H  0.26416939  0.60850035  0.81092667     0.15100
H1971       H  0.26276807  0.65896839  0.81339890     0.15100
H1972       H  0.19703435  0.00951990  0.95615101     0.13400
H1973       H  0.22517072  0.01977312  0.89386086     0.13400
H1974       H  0.11458237  0.62629994  0.89579795     0.13400
H1975       H  0.14984537  0.64600039  0.83868961     0.13400
H1976       H  0.17150059  0.58473859  0.93266239     0.26700
H1977       H  0.18654783  0.59224871  0.87235069     0.26700
C1978       C  0.13748459  0.63020862  0.55439608     0.02800
C1979       C  0.12983464  0.65342268  0.55370587     0.02800
C1980       C  0.12672653  0.66441648  0.52056768    -0.17800
C1981       C  0.12701709  0.65085874  0.98848132     0.02800
C1982       C  0.13815683  0.63022562  0.98774731     0.02800
C1983       C  0.14426307  0.62119405  0.52107782    -0.17800
H1984       H  0.15240222  0.60519261  0.52137287     0.04800
H1985       H  0.11881857  0.68066730  0.52027490     0.04800
N1986       N  0.06543367  0.65759439  0.94390014    -0.36100
N1987       N  0.11964056  0.68675978  0.90434194    -0.56700
N1988       N  0.09123908  0.71298701  0.85884405    -0.36100
N1989       N  0.03540034  0.69273484  0.90776231    -0.56700
C1990       C  0.08042834  0.64413817  0.95747594     0.27500
C1991       C  0.03608120  0.64102126  0.95445205     0.27500
C1992       C  0.11901645  0.72430493  0.84314418     0.27500
C1993       C  0.07791989  0.72810074  0.84500089     0.27500
C1994       C  0.13107787  0.68046866  0.93342117     0.36100
C1995       C  0.14361857  0.70486550  0.88367097     0.36100
C1996       C  0.01356856  0.66473609  0.91955372     0.36100
C1997       C  0.02820771  0.69446730  0.87312234     0.36100
C1998       C  0.05991266  0.61801750  0.97583336    -0.21400
C1999       C  0.03183678  0.61623616  0.97423002    -0.21400
C2000       C  0.12376184  0.74714519  0.81960574    -0.21400
C2001       C  0.09838425  0.75023759  0.82150106    -0.21400
C2002       C  0.16275393  0.69570058  0.93192542    -0.22400
C2003       C  0.17068457  0.71043768  0.89951810    -0.22400
C2004       C  0.49602727  0.64685392  0.88956920    -0.22400
C2005       C  0.00326996  0.66697807  0.86248424    -0.22400
C2006       C  0.11269159  0.65740979  0.95770886    -0.17800
C2007       C  0.01504017  0.65116428  0.95173205    -0.17800
C2008       C  0.04640217  0.71863839  0.84912344    -0.17800
C2009       C  0.14118199  0.71603481  0.85058612    -0.17800
H2010       H  0.06583337  0.60218178  0.48898778     0.15100
H2011       H  0.01149591  0.59841718  0.48533699     0.15100
H2012       H  0.14398447  0.76096528  0.80363635     0.15100
H2013       H  0.09594568  0.76707704  0.80678041     0.15100
H2014       H  0.17823163  0.69442791  0.95080555     0.13400
H2015       H  0.19367232  0.72395823  0.88906474     0.13400
H2016       H  0.47942931  0.62266198  0.88928702     0.13400
H2017       H  0.49608314  0.65973863  0.83372052     0.13400
H2018       H  0.07519939  0.67960440  0.93377339     0.26700
H2019       H  0.08059739  0.69381662  0.87507752     0.26700
N2020       N  0.06875189  0.66118290  0.59521406    -0.36100
N2021       N  0.12147851  0.68667946  0.64064025    -0.56700
N2022       N  0.08876578  0.70233690  0.68939871    -0.36100
N2023       N  0.03408950  0.67615089  0.64284971    -0.56700
C2024       C  0.08367870  0.64715282  0.58369203     0.27500
C2025       C  0.03987127  0.64521863  0.58243540     0.27500
C2026       C  0.11112446  0.70406770  0.71057360     0.27500
C2027       C  0.06582400  0.69873008  0.71095160     0.27500
C2028       C  0.13374530  0.68285292  0.61045219     0.36100
C2029       C  0.14474235  0.70483610  0.66268145     0.36100
C2030       C  0.02254479  0.67654386  0.61047822     0.36100
C2031       C  0.03209509  0.69696040  0.66321738     0.36100
C2032       C  0.06360004  0.62104119  0.56474796    -0.21400
C2033       C  0.03584720  0.61995601  0.56371702    -0.21400
C2034       C  0.10186743  0.70062031  0.74594487    -0.21400
C2035       C  0.07333011  0.69744959  0.74630567    -0.21400
C2036       C  0.16542697  0.69923345  0.61288888    -0.22400
C2037       C  0.17242416  0.71303068  0.64631833    -0.22400
C2038       C  0.51428424  0.69894222  0.60973642    -0.22400
C2039       C  0.01918478  0.71075583  0.64379572    -0.22400
C2040       C  0.11586934  0.66069116  0.58433232    -0.17800
C2041       C  0.01976929  0.65667982  0.58255113    -0.17800
C2042       C  0.04164892  0.70244400  0.69914212    -0.17800
C2043       C  0.14022482  0.71068631  0.69848203    -0.17800
H2044       H  0.06891116  0.60530442  0.55166444     0.15100
H2045       H  0.01546466  0.60331647  0.54970636     0.15100
H2046       H  0.11442280  0.70092483  0.76922666     0.15100
H2047       H  0.06037599  0.69549809  0.77012188     0.15100
H2048       H  0.18159716  0.69967737  0.59362981     0.13400
H2049       H  0.19508097  0.72658508  0.65771147     0.13400
H2050       H  0.50606134  0.70581491  0.58703051     0.13400
H2051       H  0.51450865  0.72843339  0.65294186     0.13400
H2052       H  0.07902777  0.68331270  0.60544692     0.26700
H2053       H  0.09077756  0.70784913  0.66231999     0.26700
C2054       C  0.49725658  0.64959456  0.98411808     0.02800
C2055       C  0.46490195  0.63439932  0.98644493     0.02800
C2056       C  0.45083744  0.62844761  0.51967708    -0.17800
C2057       C  0.46740698  0.63562407  0.55178916     0.02800
C2058       C  0.49986759  0.65152840  0.55020664     0.02800
C2059       C  0.01466767  0.65891594  0.51646665    -0.17800
H2060       H  0.03946825  0.67041158  0.51559286     0.04800
H2061       H  0.42599925  0.61632693  0.52095261     0.04800
C2062       C  0.14216434  0.50517178  0.55488206     0.02800
C2063       C  0.12644238  0.97333962  0.55353697     0.02800
C2064       C  0.11853480  0.95791598  0.52057726    -0.17800
C2065       C  0.12632058  0.97372948  0.98813990     0.02800
C2066       C  0.14306476  0.50537541  0.98760426     0.02800
C2067       C  0.15175664  0.52081912  0.52205130    -0.17800
H2068       H  0.16366938  0.54555767  0.52228484     0.04800
H2069       H  0.10510921  0.93317681  0.52049057     0.04800
C2070       C  0.46556604  0.83118404  0.98910568     0.02800
C2071       C  0.49789573  0.84478359  0.98908762     0.02800
C2072       C  0.01307263  0.85151764  0.52183204    -0.17800
C2073       C  0.49788506  0.84414148  0.55481025     0.02800
C2074       C  0.46546582  0.82938804  0.55464074     0.02800
C2075       C  0.44986937  0.82217025  0.52180292    -0.17800
H2076       H  0.42508109  0.81128912  0.52182926     0.04800
H2077       H  0.03790726  0.86345315  0.52169424     0.04800
C2078       C  0.33818890  0.83043611  0.55261271     0.02800
C2079       C  0.32196078  0.84648453  0.55363539     0.02800
C2080       C  0.31111052  0.85144658  0.52139248    -0.17800
C2081       C  0.31946457  0.84518466  0.98725353     0.02800
C2082       C  0.33653610  0.83010462  0.98588462     0.02800
C2083       C  0.34373941  0.82136270  0.51888926    -0.17800
H2084       H  0.35684364  0.80987972  0.51812552     0.04800
H2085       H  0.29849716  0.86345822  0.52228858     0.04800
O2086       O  0.29089401  0.82009448  0.78912330    -0.79600
O2087       O  0.20226747  0.69167469  0.82344709    -0.79700
O2088       O  0.19058095  0.74307745  0.82325101    -0.79700
O2089       O  0.28763071  0.73621632  0.79440049    -0.79600
O2090       O  0.15684730  0.70050361  0.79946526    -0.79700
O2091       O  0.27428423  0.76591192  0.82103967    -0.79600
O2092       O  0.23305457  0.68077002  0.79579976    -0.79600
O2093       O  0.24326903  0.79761090  0.81086576    -0.79700
C2094       C  0.27127336  0.81982518  0.81042672     1.10100
C2095       C  0.21574550  0.67666815  0.82238350     1.09900
C2096       C  0.16370520  0.72048261  0.82299804     1.10100
C2097       C  0.29067168  0.75365392  0.82065777     1.10000
O2098       O  0.30393846  0.78062675  0.75213005    -0.79600
O2099       O  0.17545716  0.70228361  0.72963599    -0.79700
O2100       O  0.22346574  0.79395754  0.73706987    -0.79600
O2101       O  0.22238749  0.68702996  0.72049628    -0.79600
O2102       O  0.18300703  0.66278978  0.75650722    -0.79700
O2103       O  0.26542560  0.79474977  0.72547490    -0.79600
O2104       O  0.27757646  0.74099754  0.71781130    -0.79600
O2105       O  0.17199687  0.74127135  0.74700221    -0.79700
Co2106     Co  0.26699613  0.77924553  0.77377029     1.51500
Co2107     Co  0.19239032  0.70205149  0.77654861     1.51700
Co2108     Co  0.20970684  0.76562622  0.77805811     1.51600
Co2109     Co  0.25339866  0.71365207  0.75756091     1.51500
O2110       O  0.23144125  0.73916592  0.76433810    -1.41600
C2111       C  0.30205592  0.76563573  0.72420893     1.10000
C2112       C  0.16466781  0.71930690  0.72539990     1.10100
C2113       C  0.24723694  0.80389257  0.71869670     1.10000
C2114       C  0.19671154  0.66361459  0.72800139     1.10000
O2115       O  0.26762410  0.97067804  0.72745436    -0.79600
O2116       O  0.18979903  0.52201653  0.75852087    -0.79700
O2117       O  0.17151575  0.92955305  0.74507821    -0.79700
O2118       O  0.28175809  0.53891644  0.71718292    -0.79600
O2119       O  0.17714985  0.97257355  0.73123035    -0.79700
O2120       O  0.30571193  0.52421961  0.75318081    -0.79600
O2121       O  0.22775219  0.53850246  0.72002281    -0.79600
O2122       O  0.22420169  0.93007910  0.73724101    -0.79700
C2123       C  0.24870096  0.94345565  0.71994633     1.10100
C2124       C  0.20201607  0.53466961  0.72895049     1.09900
C2125       C  0.16365384  0.94470303  0.72611152     1.10100
C2126       C  0.30495456  0.53690759  0.72443291     1.10000
O2127       O  0.27354202  0.51108640  0.82180965    -0.79600
O2128       O  0.15706328  0.96839530  0.80067666    -0.79700
O2129       O  0.24148644  0.94694465  0.81184313    -0.79600
O2130       O  0.23748668  0.55521345  0.79432566    -0.79600
O2131       O  0.21427666  0.51353747  0.82531658    -0.79700
O2132       O  0.29005702  0.97206535  0.79292125    -0.79600
O2133       O  0.29054683  0.55349171  0.79279391    -0.79600
O2134       O  0.18696907  0.95078962  0.81863180    -0.79700
Co2135     Co  0.26750294  0.98889180  0.77453917     1.51500
Co2136     Co  0.19620332  0.98959027  0.77812190     1.51700
Co2137     Co  0.20943809  0.94601421  0.77615017     1.51600
Co2138     Co  0.25771011  0.54295266  0.75617226     1.51500
O2139       O  0.23438717  0.99523488  0.75983449    -1.41600
C2140       C  0.29143477  0.53964962  0.82044566     1.10000
C2141       C  0.16107752  0.94979153  0.81945545     1.10100
C2142       C  0.26933514  0.95215924  0.81272014     1.10000
C2143       C  0.22404908  0.54197424  0.82302060     1.10000
O2144       O  0.46681224  0.68576331  0.72753774    -0.79600
O2145       O  0.01283592  0.81465318  0.76243242    -0.79700
O2146       O  0.42548608  0.73330715  0.72856690    -0.79700
O2147       O  0.02757066  0.73822769  0.71867120    -0.79600
O2148       O  0.45676299  0.78006819  0.74491658    -0.79700
O2149       O  0.01586236  0.69928089  0.75308368    -0.79600
O2150       O  0.02639227  0.79151877  0.72285935    -0.79600
O2151       O  0.42281195  0.67998417  0.74242463    -0.79700
C2152       C  0.43858927  0.67285916  0.72286042     1.10100
C2153       C  0.02438633  0.81436029  0.73201280     1.09900
C2154       C  0.43592603  0.76132571  0.72444235     1.10100
C2155       C  0.02799239  0.71399017  0.72477540     1.10000
O2156       O  0.00164594  0.71401775  0.82190705    -0.79600
O2157       O  0.46364440  0.79655296  0.81352492    -0.79700
O2158       O  0.43516429  0.69795181  0.81859104    -0.79600
O2159       O  0.04461611  0.79872937  0.79628377    -0.79600
O2160       O  0.00466741  0.77933577  0.83007746    -0.79700
O2161       O  0.45080053  0.66848941  0.79735773    -0.79600
O2162       O  0.04407487  0.74454566  0.79510436    -0.79600
O2163       O  0.42966235  0.74732594  0.80533463    -0.79700
Co2164     Co  0.48357276  0.70474174  0.77421022     1.51500
Co2165     Co  0.47905481  0.77564524  0.78688077     1.51700
Co2166     Co  0.43380563  0.71724635  0.77253332     1.51600
Co2167     Co  0.03151148  0.76622899  0.75844502     1.51500
O2168       O  0.48308761  0.74260323  0.76478690    -1.41600
C2169       C  0.03020691  0.72706294  0.82145826     1.10000
C2170       C  0.43762489  0.77311086  0.82016219     1.10100
C2171       C  0.43531186  0.67325904  0.81979555     1.10000
C2172       C  0.03272888  0.79877960  0.82598874     1.10000
N2173       N  0.81516579  0.40815020  0.09904330    -0.36100
N2174       N  0.79084893  0.35375609  0.14354599    -0.56700
N2175       N  0.75910035  0.37990288  0.18506845    -0.36100
N2176       N  0.79088716  0.43795417  0.14408774    -0.56700
C2177       C  0.83017171  0.39421457  0.08691244     0.27500
C2178       C  0.83020728  0.43730562  0.08735537     0.27500
C2179       C  0.75385159  0.35568212  0.20538887     0.27500
C2180       C  0.75403386  0.39885734  0.20578168     0.27500
C2181       C  0.79382046  0.34390327  0.11093280     0.36100
C2182       C  0.76741164  0.32933561  0.15978472     0.36100
C2183       C  0.79398656  0.45108385  0.11177210     0.36100
C2184       C  0.76784278  0.43912202  0.16078750     0.36100
C2185       C  0.85602196  0.41524396  0.06838431    -0.21400
C2186       C  0.85605314  0.44250358  0.06868950    -0.21400
C2187       C  0.74451271  0.35899017  0.23912366    -0.21400
C2188       C  0.74455177  0.38598082  0.23932768    -0.21400
C2189       C  0.77113666  0.31386195  0.10589304    -0.22400
C2190       C  0.75525571  0.30412339  0.13760726    -0.22400
C2191       C  0.77179208  0.45897254  0.10739037    -0.22400
C2192       C  0.75609342  0.45272067  0.13924753    -0.22400
C2193       C  0.81718233  0.36202433  0.08629439    -0.17800
C2194       C  0.81720169  0.45629995  0.08699441    -0.17800
C2195       C  0.75633800  0.42664061  0.19459271    -0.17800
C2196       C  0.75573410  0.33004273  0.19362644    -0.17800
H2197       H  0.87221622  0.41090431  0.05462616     0.15100
H2198       H  0.87225018  0.46328910  0.05518798     0.15100
H2199       H  0.73859514  0.34396520  0.26183269     0.15100
H2200       H  0.73863125  0.39499994  0.26217687     0.15100
H2201       H  0.76626296  0.30057087  0.08163196     0.13400
H2202       H  0.73574624  0.28176259  0.14294128     0.13400
H2203       H  0.76714648  0.46786187  0.08352220     0.13400
H2204       H  0.73701929  0.45594875  0.14511084     0.13400
H2205       H  0.79271041  0.39680165  0.10871708     0.26700
H2206       H  0.76393650  0.38237246  0.15772548     0.26700
N2207       N  0.81349987  0.40679376  0.44498473    -0.36100
N2208       N  0.79968052  0.44178526  0.39594034    -0.56700
N2209       N  0.78108761  0.39075075  0.34744709    -0.36100
N2210       N  0.79442023  0.35752077  0.39815447    -0.56700
C2211       C  0.82869856  0.43567050  0.45743718     0.27500
C2212       C  0.82759651  0.39234386  0.45778815     0.27500
C2213       C  0.78614135  0.41471832  0.32718615     0.27500
C2214       C  0.78709982  0.37244340  0.32727554     0.27500
C2215       C  0.79586741  0.45035678  0.42851840     0.36100
C2216       C  0.77830783  0.44176020  0.37485138     0.36100
C2217       C  0.79415952  0.34376563  0.42871999     0.36100
C2218       C  0.77794915  0.33571053  0.37422610     0.36100
C2219       C  0.85369708  0.44021820  0.47734370    -0.21400
C2220       C  0.85304472  0.41268940  0.47748014    -0.21400
C2221       C  0.79675856  0.41244043  0.29389862    -0.21400
C2222       C  0.79734551  0.38548669  0.29393457    -0.21400
C2223       C  0.77049773  0.45378073  0.42900807    -0.22400
C2224       C  0.75999469  0.44964465  0.39410135    -0.22400
C2225       C  0.77601598  0.31238087  0.42510496    -0.22400
C2226       C  0.76591256  0.30715816  0.38995331    -0.22400
C2227       C  0.81615333  0.45487098  0.45631832    -0.17800
C2228       C  0.81445678  0.36030756  0.45646406    -0.17800
C2229       C  0.77925873  0.34283301  0.33785637    -0.17800
C2230       C  0.77752499  0.43572305  0.33838750    -0.17800
H2231       H  0.86894690  0.46150337  0.99224577     0.15100
H2232       H  0.86865936  0.40893412  0.99168417     0.15100
H2233       H  0.80240995  0.42788105  0.27160040     0.15100
H2234       H  0.80342956  0.37606518  0.27157631     0.15100
H2235       H  0.76056539  0.45845785  0.45200063     0.13400
H2236       H  0.74067502  0.45113454  0.38446204     0.13400
H2237       H  0.77257928  0.29525077  0.44459095     0.13400
H2238       H  0.75288972  0.28508960  0.37717807     0.13400
H2239       H  0.79159697  0.39619756  0.43380311     0.26700
H2240       H  0.76987831  0.38510228  0.37212266     0.26700
N2241       N  0.89391560  0.07471326  0.44369054    -0.36100
N2242       N  0.92296199  0.12788955  0.40100034    -0.56700
N2243       N  0.87009680  0.09911150  0.35322398    -0.36100
N2244       N  0.83963099  0.04340057  0.39750040    -0.56700
C2245       C  0.92322851  0.08849584  0.45525706     0.27500
C2246       C  0.88007060  0.04520882  0.45378428     0.27500
C2247       C  0.88736763  0.12636498  0.33681673     0.27500
C2248       C  0.84196371  0.08528965  0.33779451     0.27500
C2249       C  0.93958835  0.13908367  0.43108031     0.36100
C2250       C  0.92962680  0.15190036  0.38025558     0.36100
C2251       C  0.82970772  0.03088491  0.43030456     0.36100
C2252       C  0.81554313  0.04255739  0.38077790     0.36100
C2253       C  0.92845153  0.06725195  0.47182060    -0.21400
C2254       C  0.90109934  0.03980298  0.47086392    -0.21400
C2255       C  0.87024446  0.13023796  0.31103797    -0.21400
C2256       C  0.84164735  0.10495935  0.31207347    -0.21400
C2257       C  0.95601237  0.17069169  0.43024149    -0.22400
C2258       C  0.95031231  0.17883010  0.39727136    -0.22400
C2259       C  0.79982818  0.02383330  0.43522113    -0.22400
C2260       C  0.79058322  0.03014825  0.40330383    -0.22400
C2261       C  0.94333331  0.12047172  0.45570627    -0.17800
C2262       C  0.84796127  0.02603084  0.45507052    -0.17800
C2263       C  0.81653202  0.05612617  0.34734798    -0.17800
C2264       C  0.91721524  0.14946728  0.34620772    -0.17800
H2265       H  0.95180957  0.07224821  0.98306473     0.15100
H2266       H  0.89925777  0.01926046  0.98181599     0.15100
H2267       H  0.87701200  0.15017683  0.29469478     0.15100
H2268       H  0.82284003  0.10338013  0.29688511     0.15100
H2269       H  0.97198889  0.18604260  0.45007011     0.13400
H2270       H  0.96004724  0.20180007  0.38710497     0.13400
H2271       H  0.78674190  0.50935718  0.45641766     0.13400
H2272       H  0.76893579  0.02823017  0.39808685     0.13400
H2273       H  0.88248825  0.08585652  0.43538884     0.26700
H2274       H  0.87772748  0.08983407  0.37234493     0.26700
N2275       N  0.90315969  0.07457814  0.09827237    -0.36100
N2276       N  0.93409900  0.12776057  0.14348934    -0.56700
N2277       N  0.88031912  0.09571795  0.18996696    -0.36100
N2278       N  0.85107503  0.04069399  0.14554373    -0.56700
C2279       C  0.93169329  0.08975381  0.08437195     0.27500
C2280       C  0.88867703  0.04607489  0.08443259     0.27500
C2281       C  0.90190846  0.11804714  0.21051019     0.27500
C2282       C  0.86065302  0.07331772  0.21204523     0.27500
C2283       C  0.94503547  0.13889036  0.11069575     0.36100
C2284       C  0.93359940  0.15032390  0.16187136     0.36100
C2285       C  0.83976231  0.03087460  0.11251815     0.36100
C2286       C  0.82831359  0.04024714  0.16469272     0.36100
C2287       C  0.93607694  0.07003114  0.06284982    -0.21400
C2288       C  0.90878142  0.04240591  0.06276173    -0.21400
C2289       C  0.89680699  0.10918338  0.24594366    -0.21400
C2290       C  0.87047225  0.08093498  0.24703032    -0.21400
C2291       C  0.95021307  0.16823637  0.10768065    -0.22400
C2292       C  0.94415411  0.17604336  0.14086787    -0.22400
C2293       C  0.81032575  0.02573704  0.11004609    -0.22400
C2294       C  0.80243080  0.03040383  0.14378492    -0.22400
C2295       C  0.95004871  0.12202601  0.08435858    -0.17800
C2296       C  0.85645915  0.02669301  0.08540694    -0.17800
C2297       C  0.83205641  0.04934829  0.20063063    -0.17800
C2298       C  0.92361751  0.14703594  0.19745343    -0.17800
H2299       H  0.95605154  0.07568406  0.04686859     0.15100
H2300       H  0.90363891  0.02259376  0.04681028     0.15100
H2301       H  0.91034853  0.12178997  0.26864360     0.15100
H2302       H  0.85959640  0.06793264  0.27084495     0.15100
H2303       H  0.95727200  0.18231551  0.08400112     0.13400
H2304       H  0.94592737  0.19746297  0.14821370     0.13400
H2305       H  0.79471328  0.51898248  0.08691025     0.13400
H2306       H  0.78086815  0.02840834  0.15123953     0.13400
H2307       H  0.89217768  0.08476665  0.11066024     0.26700
H2308       H  0.87671225  0.09771619  0.16290756     0.26700
C2309       C  0.84049383  0.00758841  0.05343533     0.02800
C2310       C  0.82218469  0.47553901  0.05450988     0.02800
C2311       C  0.81101609  0.45988765  0.02203106    -0.17800
C2312       C  0.81982153  0.47409812  0.48800496     0.02800
C2313       C  0.83481978  0.00697486  0.48821473     0.02800
C2314       C  0.84555771  0.02294214  0.02058271    -0.17800
H2315       H  0.85867758  0.04768909  0.02049020     0.04800
H2316       H  0.79814367  0.43512903  0.02241305     0.04800
N2317       N  0.89880041  0.32682780  0.44268362    -0.36100
N2318       N  0.82730524  0.28709061  0.40819783    -0.56700
N2319       N  0.86639923  0.27026605  0.35782569    -0.36100
N2320       N  0.92949370  0.30648419  0.39862382    -0.57300
C2321       C  0.88472275  0.34146627  0.45462003     0.27500
C2322       C  0.92717225  0.34072530  0.45734259     0.27500
C2323       C  0.83752360  0.25361827  0.34450486     0.27500
C2324       C  0.88400610  0.26071318  0.34172257     0.27500
C2325       C  0.83840535  0.31647399  0.41906023     0.36100
C2326       C  0.82102545  0.28624573  0.37255259     0.36100
C2327       C  0.94132390  0.30646212  0.43085980     0.36100
C2328       C  0.92811976  0.28301590  0.38082706     0.36100
C2329       C  0.90460566  0.36587620  0.47592172    -0.21400
C2330       C  0.93164667  0.36549939  0.47750736    -0.21400
C2331       C  0.83653543  0.23161703  0.32140920    -0.21400
C2332       C  0.86591283  0.23652344  0.31913317    -0.21400
C2333       C  0.84264748  0.33452335  0.38953226    -0.22400
C2334       C  0.83066077  0.31536343  0.36046388    -0.22400
C2335       C  0.94634888  0.28231414  0.43389190    -0.22400
C2336       C  0.93894782  0.26786466  0.40125361    -0.22400
C2337       C  0.85289618  0.32893091  0.45233976    -0.17800
C2338       C  0.94611192  0.32777080  0.45735772    -0.17800
C2339       C  0.91605047  0.27439570  0.34679417    -0.17800
C2340       C  0.81452710  0.26179824  0.34880765    -0.17800
H2341       H  0.89927980  0.38104473  0.99061756     0.15100
H2342       H  0.95149756  0.38038723  0.99281221     0.15100
H2343       H  0.81718601  0.21411384  0.30678558     0.15100
H2344       H  0.87279243  0.22352521  0.30268796     0.15100
H2345       H  0.85386121  0.35916113  0.38907499     0.13400
H2346       H  0.83170312  0.32236187  0.33299798     0.13400
H2347       H  0.95320276  0.27515526  0.45754942     0.13400
H2348       H  0.93964080  0.24760496  0.39398509     0.13400
H2349       H  0.88733238  0.30522937  0.43094374     0.26700
H2350       H  0.87471285  0.28968262  0.37381723     0.26700
N2351       N  0.89846576  0.32380716  0.09806038    -0.36100
N2352       N  0.92940459  0.30143109  0.14479494    -0.56700
N2353       N  0.87679790  0.28006327  0.19021694    -0.36100
N2354       N  0.84752786  0.30597951  0.14440881    -0.56700
C2355       C  0.92779145  0.33827601  0.08686498     0.27500
C2356       C  0.88518504  0.33909026  0.08503490     0.27500
C2357       C  0.89761636  0.27847465  0.21134485     0.27500
C2358       C  0.85611409  0.28150276  0.21175558     0.27500
C2359       C  0.94043624  0.30177339  0.11197270     0.36100
C2360       C  0.93003472  0.27896848  0.16310663     0.36100
C2361       C  0.83588348  0.30586083  0.11187932     0.36100
C2362       C  0.82459875  0.28361827  0.16348035     0.36100
C2363       C  0.93375807  0.36407518  0.06784600    -0.21400
C2364       C  0.90669489  0.36452481  0.06658634    -0.21400
C2365       C  0.89061322  0.27985000  0.24674523    -0.21400
C2366       C  0.86426970  0.28153827  0.24714291    -0.21400
C2367       C  0.94668437  0.27834383  0.10869719    -0.22400
C2368       C  0.94126520  0.26456036  0.14189736    -0.22400
C2369       C  0.80588578  0.28236161  0.10962451    -0.22400
C2370       C  0.79817006  0.26901064  0.14300266    -0.22400
C2371       C  0.94590064  0.32435734  0.08656499    -0.17800
C2372       C  0.85316325  0.32692915  0.08492183    -0.17800
C2373       C  0.82802964  0.27774930  0.19943469    -0.17800
C2374       C  0.92028207  0.27230243  0.19873206    -0.17800
H2375       H  0.95493899  0.37987305  0.05467761     0.15100
H2376       H  0.90290924  0.38092329  0.05271807     0.15100
H2377       H  0.90291726  0.27914402  0.26976213     0.15100
H2378       H  0.85219160  0.28186199  0.27081370     0.15100
H2379       H  0.95465930  0.27217202  0.08505252     0.13400
H2380       H  0.94416577  0.24562557  0.14918230     0.13400
H2381       H  0.79144834  0.27508897  0.08615144     0.13400
H2382       H  0.77618253  0.24986673  0.15051747     0.13400
H2383       H  0.88675952  0.30170281  0.10824000     0.26700
H2384       H  0.87429916  0.27600734  0.16274847     0.26700
N2385       N  0.56487804  0.40698080  0.09986895    -0.36100
N2386       N  0.52999232  0.35754199  0.14846538    -0.56700
N2387       N  0.58441670  0.38796881  0.19504451    -0.36100
N2388       N  0.61721301  0.43929931  0.14695198    -0.56700
C2389       C  0.53627511  0.39250160  0.08616029     0.27500
C2390       C  0.57944491  0.43568756  0.08705587     0.27500
C2391       C  0.56121056  0.36944315  0.21719755     0.27500
C2392       C  0.60711503  0.40972644  0.21531165     0.27500
C2393       C  0.52002851  0.34468250  0.11594249     0.36100
C2394       C  0.52812409  0.33553782  0.17006917     0.36100
C2395       C  0.62881978  0.45071360  0.11436362     0.36100
C2396       C  0.64021874  0.44048500  0.16647603     0.36100
C2397       C  0.53192999  0.41257217  0.06568673    -0.21400
C2398       C  0.55925665  0.44004674  0.06644100    -0.21400
C2399       C  0.56881443  0.38024139  0.25190943    -0.21400
C2400       C  0.59766957  0.40602143  0.25050433    -0.21400
C2401       C  0.01301658  0.31472117  0.11583658    -0.22400
C2402       C  0.51710626  0.30846411  0.15098955    -0.22400
C2403       C  0.65905914  0.45800151  0.11263856    -0.22400
C2404       C  0.66669581  0.45261001  0.14627991    -0.22400
C2405       C  0.51702024  0.36056510  0.08706184    -0.17800
C2406       C  0.61167690  0.45457247  0.08719335    -0.17800
C2407       C  0.63671529  0.43080089  0.20237278    -0.17800
C2408       C  0.53646888  0.34077915  0.20655982    -0.17800
H2409       H  0.51172540  0.40749402  0.05057057     0.15100
H2410       H  0.56436563  0.46030430  0.05170201     0.15100
H2411       H  0.55534014  0.37036572  0.27577758     0.15100
H2412       H  0.61035004  0.42041696  0.27272520     0.15100
H2413       H  0.00673429  0.29949517  0.09312938     0.13400
H2414       H  0.01378555  0.28673119  0.15952823     0.13400
H2415       H  0.67394145  0.46623510  0.08956662     0.13400
H2416       H  0.68871310  0.45614674  0.15455256     0.13400
H2417       H  0.57550416  0.39619052  0.11164933     0.26700
H2418       H  0.58649206  0.38352372  0.16825145     0.26700
N2419       N  0.56422421  0.40611806  0.44395799    -0.36100
N2420       N  0.61628649  0.44008562  0.39840386    -0.56700
N2421       N  0.59016273  0.38012421  0.35590080    -0.36100
N2422       N  0.53503354  0.34981084  0.39981720    -0.56700
C2423       C  0.57773464  0.43505326  0.45660001     0.27500
C2424       C  0.53491042  0.39135955  0.45518304     0.27500
C2425       C  0.61651316  0.39870792  0.33823273     0.27500
C2426       C  0.57686552  0.35203687  0.34041181     0.27500
C2427       C  0.62717408  0.45071781  0.43133215     0.36100
C2428       C  0.63950274  0.44037979  0.38099044     0.36100
C2429       C  0.52133125  0.34046544  0.43215122     0.36100
C2430       C  0.53378626  0.32528724  0.38363746     0.36100
C2431       C  0.55644638  0.43929200  0.47485400    -0.21400
C2432       C  0.52924404  0.41166402  0.47379464    -0.21400
C2433       C  0.62110346  0.38230414  0.31209498    -0.21400
C2434       C  0.59651151  0.35300612  0.31351865    -0.21400
C2435       C  0.65658837  0.45609821  0.43538828    -0.22400
C2436       C  0.66499241  0.45055297  0.40258569    -0.22400
C2437       C  0.01365914  0.30947868  0.43767552    -0.22400
C2438       C  0.51915091  0.30017548  0.40580919    -0.22400
C2439       C  0.60981334  0.45481525  0.45717048    -0.17800
C2440       C  0.51655778  0.35918595  0.45655218    -0.17800
C2441       C  0.54813198  0.32578659  0.35067820    -0.17800
C2442       C  0.63714344  0.42971214  0.34647044    -0.17800
H2443       H  0.55962784  0.45829366  0.98892202     0.15100
H2444       H  0.50785012  0.40468594  0.98765928     0.15100
H2445       H  0.64069708  0.39025001  0.29466495     0.15100
H2446       H  0.59502828  0.33476249  0.29728580     0.15100
H2447       H  0.67002187  0.46236951  0.45966606     0.13400
H2448       H  0.68648324  0.45199152  0.39593487     0.13400
H2449       H  0.00440952  0.29633893  0.46183921     0.13400
H2450       H  0.01771856  0.27719317  0.40202897     0.13400
H2451       H  0.57589222  0.39548700  0.43455737     0.26700
H2452       H  0.58138521  0.38733269  0.37631993     0.26700
N2453       N  0.64133439  0.06759396  0.09816288    -0.36100
N2454       N  0.66898924  0.12839256  0.13962427    -0.56700
N2455       N  0.67773220  0.08687608  0.19526940    -0.36100
N2456       N  0.66122508  0.03621408  0.14611895    -0.56700
C2457       C  0.62614865  0.08031168  0.08388015     0.27500
C2458       C  0.62967089  0.03960947  0.08356297     0.27500
C2459       C  0.68390351  0.11126988  0.21519771     0.27500
C2460       C  0.68286616  0.06827802  0.21592232     0.27500
C2461       C  0.64403407  0.12452361  0.12165060     0.36100
C2462       C  0.66586491  0.13563955  0.17364948     0.36100
C2463       C  0.66397998  0.02650613  0.11351338     0.36100
C2464       C  0.68259285  0.03563283  0.16690442     0.36100
C2465       C  0.60347771  0.05979052  0.06114026    -0.21400
C2466       C  0.60566084  0.03387928  0.06098381    -0.21400
C2467       C  0.69162650  0.10766564  0.24962220    -0.21400
C2468       C  0.69049240  0.08030956  0.25025785    -0.21400
C2469       C  0.62349230  0.12517901  0.14558059    -0.22400
C2470       C  0.63802895  0.13397778  0.17811117    -0.22400
C2471       C  0.68761587  0.02052767  0.11310198    -0.22400
C2472       C  0.69874414  0.02510286  0.14746107    -0.22400
C2473       C  0.63543148  0.11129775  0.08739171    -0.17800
C2474       C  0.64444708  0.02248685  0.08494901    -0.17800
C2475       C  0.68741220  0.04489184  0.20297887    -0.17800
C2476       C  0.68429392  0.13729343  0.20251450    -0.17800
H2477       H  0.58770820  0.06359208  0.04569647     0.15100
H2478       H  0.59221494  0.01373823  0.04488241     0.15100
H2479       H  0.69812222  0.12327747  0.27188008     0.15100
H2480       H  0.69690139  0.07168068  0.27288583     0.15100
H2481       H  0.59998220  0.11881297  0.14039918     0.13400
H2482       H  0.62818493  0.13602116  0.20292658     0.13400
H2483       H  0.70012234  0.51911250  0.09115799     0.13400
H2484       H  0.72135046  0.52806934  0.15722594     0.13400
H2485       H  0.66251759  0.07973431  0.11165819     0.26700
H2486       H  0.67387755  0.08526699  0.16723741     0.26700
N2487       N  0.65026957  0.07266689  0.44357786    -0.36100
N2488       N  0.67918129  0.04672326  0.40058023    -0.56700
N2489       N  0.70660308  0.10244921  0.35790551    -0.36100
N2490       N  0.68284069  0.13545678  0.40821958    -0.56700
C2491       C  0.63646677  0.04354625  0.45534177     0.27500
C2492       C  0.63326292  0.08447895  0.45536939     0.27500
C2493       C  0.72168330  0.08884314  0.34401099     0.27500
C2494       C  0.72063031  0.13180322  0.34607831     0.27500
C2495       C  0.67416164  0.03130588  0.43174294     0.36100
C2496       C  0.69965698  0.04259812  0.38178897     0.36100
C2497       C  0.65622027  0.13153409  0.42221178     0.36100
C2498       C  0.68395342  0.14434476  0.37372066     0.36100
C2499       C  0.60958837  0.03641601  0.47295168    -0.21400
C2500       C  0.60763591  0.06243069  0.47307985    -0.21400
C2501       C  0.74634582  0.11042415  0.32418991    -0.21400
C2502       C  0.74587097  0.13731336  0.32576164    -0.21400
C2503       C  0.69328945  0.01954561  0.43387140    -0.22400
C2504       C  0.70771569  0.02477465  0.40128750    -0.22400
C2505       C  0.63911420  0.13414912  0.39519621    -0.22400
C2506       C  0.65716296  0.14388106  0.36519567    -0.22400
C2507       C  0.65059429  0.02574979  0.45633928    -0.17800
C2508       C  0.64250906  0.11559187  0.45410377    -0.17800
C2509       C  0.70817171  0.15151053  0.34916004    -0.17800
C2510       C  0.71438204  0.05784956  0.34972360    -0.17800
H2511       H  0.59249539  0.01449988  0.98264806     0.15100
H2512       H  0.58950176  0.06518075  0.98345678     0.15100
H2513       H  0.76384934  0.10778138  0.31099013     0.15100
H2514       H  0.76254462  0.15839846  0.31322910     0.15100
H2515       H  0.69949637  0.51352832  0.46026032     0.13400
H2516       H  0.73098457  0.52687269  0.39995497     0.13400
H2517       H  0.61536001  0.12811418  0.39649726     0.13400
H2518       H  0.65017926  0.14752652  0.33924572     0.13400
H2519       H  0.67243249  0.08525713  0.43350802     0.26700
H2520       H  0.68580127  0.09161266  0.37145441     0.26700
C2521       C  0.63601486  0.12883983  0.05437096     0.02800
C2522       C  0.62775082  0.15159715  0.05403539     0.02800
C2523       C  0.62485140  0.16297177  0.02106249    -0.17800
C2524       C  0.62722076  0.15111701  0.48830739     0.02800
C2525       C  0.63820428  0.13032814  0.48752367     0.02800
C2526       C  0.64378082  0.12084691  0.02106018    -0.17800
H2527       H  0.65255670  0.10536255  0.02126356     0.04800
H2528       H  0.61652862  0.17889184  0.02101396     0.04800
N2529       N  0.56532684  0.15731004  0.44324880    -0.36100
N2530       N  0.61953720  0.18729892  0.40456213    -0.56700
N2531       N  0.59017738  0.21246551  0.35785683    -0.36100
N2532       N  0.53421666  0.19261678  0.40688950    -0.56700
C2533       C  0.58052819  0.14419061  0.45719912     0.27500
C2534       C  0.53590118  0.14042545  0.45331995     0.27500
C2535       C  0.61800850  0.22350013  0.34216087     0.27500
C2536       C  0.57671671  0.22736172  0.34345418     0.27500
C2537       C  0.63111219  0.18123870  0.43370534     0.36100
C2538       C  0.64335936  0.20545182  0.38377169     0.36100
C2539       C  0.51331460  0.16398927  0.41804714     0.36100
C2540       C  0.52708791  0.19446797  0.37218229     0.36100
C2541       C  0.56006973  0.11796494  0.47543741    -0.21400
C2542       C  0.53181699  0.11579004  0.47332847    -0.21400
C2543       C  0.62264357  0.24590236  0.31801938    -0.21400
C2544       C  0.59724698  0.24903525  0.31950917    -0.21400
C2545       C  0.66279631  0.19677128  0.43222042    -0.22400
C2546       C  0.67056139  0.21141615  0.39970671    -0.22400
C2547       C  0.99445901  0.14702570  0.39012077    -0.22400
C2548       C  0.50350818  0.16648582  0.36077514    -0.22400
C2549       C  0.61284715  0.15781985  0.45769478    -0.17800
C2550       C  0.51480857  0.15049692  0.45042527    -0.17800
C2551       C  0.54522101  0.21871300  0.34831717    -0.17800
C2552       C  0.64047551  0.21560397  0.35015135    -0.17800
H2553       H  0.56602270  0.10247422  0.98997530     0.15100
H2554       H  0.51143532  0.09802911  0.98680605     0.15100
H2555       H  0.64286433  0.25950867  0.30195658     0.15100
H2556       H  0.59497455  0.26576252  0.30433268     0.15100
H2557       H  0.67836965  0.19561439  0.45105717     0.13400
H2558       H  0.69350439  0.22491815  0.38912282     0.13400
H2559       H  0.97718199  0.12303935  0.39029801     0.13400
H2560       H  0.99305184  0.15977131  0.33462071     0.13400
H2561       H  0.57485469  0.17934989  0.43328240     0.26700
H2562       H  0.57977151  0.19383545  0.37492195     0.26700
N2563       N  0.56715055  0.15967828  0.09593923    -0.36100
N2564       N  0.61981635  0.18561166  0.14077591    -0.56700
N2565       N  0.58741193  0.20251743  0.18965103    -0.36100
N2566       N  0.53288223  0.17573008  0.14319635    -0.56700
C2567       C  0.58176451  0.14526482  0.08468858     0.27500
C2568       C  0.53820933  0.14382086  0.08344226     0.27500
C2569       C  0.60972295  0.20385729  0.21064543     0.27500
C2570       C  0.56432318  0.19861555  0.21135835     0.27500
C2571       C  0.63195770  0.18111938  0.11084284     0.36100
C2572       C  0.64314655  0.20373893  0.16274739     0.36100
C2573       C  0.52185957  0.17630762  0.11054123     0.36100
C2574       C  0.53072880  0.19650146  0.16348535     0.36100
C2575       C  0.56138731  0.11892424  0.06630786    -0.21400
C2576       C  0.53375420  0.11813081  0.06530770    -0.21400
C2577       C  0.60034170  0.20003142  0.24601056    -0.21400
C2578       C  0.57178335  0.19700733  0.24655389    -0.21400
C2579       C  0.66362975  0.19702918  0.11337575    -0.22400
C2580       C  0.67075045  0.21119956  0.14658927    -0.22400
C2581       C  0.01700624  0.20166751  0.10787491    -0.22400
C2582       C  0.51855575  0.21076028  0.14354378    -0.22400
C2583       C  0.61392520  0.15873554  0.08495763    -0.17800
C2584       C  0.51863769  0.15588472  0.08301277    -0.17800
C2585       C  0.53944724  0.20139074  0.19979478    -0.17800
C2586       C  0.63874590  0.21000198  0.19846974    -0.17800
H2587       H  0.56643395  0.10290567  0.05344948     0.15100
H2588       H  0.51323197  0.10147779  0.05152724     0.15100
H2589       H  0.61273038  0.19958999  0.26911125     0.15100
H2590       H  0.55845338  0.19446686  0.27024135     0.15100
H2591       H  0.67966946  0.19680572  0.09442830     0.13400
H2592       H  0.69343669  0.22448001  0.15801013     0.13400
H2593       H  0.00947212  0.20880401  0.08476079     0.13400
H2594       H  0.01818590  0.23223698  0.15041511     0.13400
H2595       H  0.57766250  0.18199731  0.10558648     0.26700
H2596       H  0.58940610  0.20792538  0.16253693     0.26700
C2597       C  0.99719509  0.14890505  0.48375102     0.02800
C2598       C  0.96480894  0.13435769  0.48628668     0.02800
C2599       C  0.95180486  0.13029596  0.01941990    -0.17800
C2600       C  0.96830019  0.13700442  0.05147715     0.02800
C2601       C  0.00071077  0.15261743  0.04994032     0.02800
C2602       C  0.51337133  0.15749566  0.01684608    -0.17800
H2603       H  0.53816590  0.16892189  0.01591442     0.04800
H2604       H  0.92697255  0.11844943  0.02067831     0.04800
C2605       C  0.64281144  0.00431370  0.05290554     0.02800
C2606       C  0.62651177  0.47324365  0.05439893     0.02800
C2607       C  0.61835630  0.45782909  0.02140248    -0.17800
C2608       C  0.62497558  0.47381883  0.48935261     0.02800
C2609       C  0.64408463  0.00560405  0.48854612     0.02800
C2610       C  0.65268548  0.02013231  0.02022438    -0.17800
H2611       H  0.66510893  0.04488434  0.02068405     0.04800
H2612       H  0.60453443  0.43311399  0.02132570     0.04800
C2613       C  0.96510253  0.33115579  0.48947204     0.02800
C2614       C  0.99743369  0.34473593  0.48904553     0.02800
C2615       C  0.51300855  0.35006733  0.02180950    -0.17800
C2616       C  0.99734708  0.34451696  0.05441161     0.02800
C2617       C  0.96487716  0.32874957  0.05427120     0.02800
C2618       C  0.94929829  0.32096970  0.02143267    -0.17800
H2619       H  0.92446605  0.30952022  0.02146416     0.04800
H2620       H  0.53783673  0.36169756  0.02161924     0.04800
C2621       C  0.83835208  0.33167334  0.05266175     0.02800
C2622       C  0.82198958  0.34760884  0.05355506     0.02800
C2623       C  0.81126890  0.35254072  0.02117194    -0.17800
C2624       C  0.81911592  0.34493675  0.48727192     0.02800
C2625       C  0.83658463  0.33032785  0.48562256     0.02800
C2626       C  0.84381194  0.32236933  0.01902490    -0.17800
H2627       H  0.85684317  0.31080842  0.01841368     0.04800
H2628       H  0.79869566  0.36459441  0.02190120     0.04800
O2629       O  0.79005407  0.31942765  0.28975919    -0.79600
O2630       O  0.70201228  0.19119981  0.32263374    -0.79700
O2631       O  0.68992618  0.24224370  0.32276382    -0.79700
O2632       O  0.78704917  0.23602417  0.29402338    -0.79600
O2633       O  0.65621273  0.19956979  0.29923708    -0.79700
O2634       O  0.77297974  0.26495651  0.32102531    -0.79600
O2635       O  0.73276263  0.18033084  0.29487108    -0.79600
O2636       O  0.74231490  0.29683903  0.31105850    -0.79700
C2637       C  0.77033815  0.31900246  0.31099053     1.10100
C2638       C  0.71547636  0.17618786  0.32152861     1.09900
C2639       C  0.66303410  0.21969604  0.32261030     1.10100
C2640       C  0.78967363  0.25304854  0.32055388     1.10000
O2641       O  0.80326859  0.28059294  0.25234511    -0.79600
O2642       O  0.67371634  0.20108149  0.22958850    -0.79700
O2643       O  0.72297919  0.29407876  0.23707859    -0.79600
O2644       O  0.72246823  0.18732247  0.21939134    -0.79600
O2645       O  0.68301762  0.16234059  0.25510314    -0.79700
O2646       O  0.76500357  0.29494277  0.22571739    -0.79600
O2647       O  0.77734899  0.24134797  0.21740036    -0.79600
O2648       O  0.67130484  0.24084646  0.24645569    -0.79700
Co2649     Co  0.76612407  0.27881266  0.27383456     1.51500
Co2650     Co  0.69181712  0.20135389  0.27582616     1.51700
Co2651     Co  0.70898636  0.26513871  0.27773545     1.51600
Co2652     Co  0.75309863  0.21360958  0.25686317     1.51500
O2653       O  0.73074981  0.23878573  0.26359534    -1.41600
C2654       C  0.80163260  0.26607327  0.22410874     1.10000
C2655       C  0.66328020  0.21842945  0.22531066     1.10100
C2656       C  0.74693129  0.30423220  0.21891521     1.10000
C2657       C  0.69690256  0.16368092  0.22651228     1.10000
O2658       O  0.76678249  0.47142263  0.22702831    -0.79600
O2659       O  0.68988748  0.02128072  0.25654115    -0.79700
O2660       O  0.67157980  0.43011162  0.24591945    -0.79700
O2661       O  0.78246303  0.03859862  0.21756982    -0.79600
O2662       O  0.67629865  0.47305532  0.23353427    -0.79700
O2663       O  0.80608595  0.02390680  0.25411442    -0.79600
O2664       O  0.72827154  0.03767732  0.21871036    -0.79600
O2665       O  0.72425240  0.43043817  0.23848854    -0.79700
C2666       C  0.74825072  0.44394494  0.22030280     1.10100
C2667       C  0.70240959  0.03376319  0.22701187     1.09900
C2668       C  0.66320500  0.44526134  0.22771780     1.10100
C2669       C  0.80559833  0.03656181  0.22518589     1.10000
O2670       O  0.77308226  0.01064138  0.32230445    -0.79600
O2671       O  0.65706236  0.46915258  0.30294429    -0.79700
O2672       O  0.74163195  0.44769918  0.31296051    -0.79600
O2673       O  0.73667438  0.05446112  0.29348462    -0.79600
O2674       O  0.71341309  0.01278628  0.32437700    -0.79700
O2675       O  0.78957869  0.47142374  0.29208840    -0.79600
O2676       O  0.78972868  0.05290349  0.29314289    -0.79600
O2677       O  0.68655767  0.45076870  0.31989601    -0.79700
Co2678     Co  0.76751684  0.48930588  0.27464747     1.51500
Co2679     Co  0.69607498  0.49011457  0.28024011     1.51700
Co2680     Co  0.70938405  0.44647807  0.27729246     1.51600
Co2681     Co  0.75760356  0.04236209  0.25581605     1.51500
O2682       O  0.73422708  0.49588925  0.26127344    -1.41600
C2683       C  0.79067632  0.03925302  0.32089804     1.10000
C2684       C  0.66079240  0.45006175  0.32104079     1.10100
C2685       C  0.76914666  0.45193271  0.31259156     1.10000
C2686       C  0.72316745  0.04121168  0.32219381     1.10000
O2687       O  0.96644408  0.18634923  0.22680491    -0.79600
O2688       O  0.51203638  0.31445869  0.26151763    -0.79700
O2689       O  0.92434002  0.23310410  0.22876729    -0.79700
O2690       O  0.52765435  0.23872486  0.21842786    -0.79600
O2691       O  0.95583672  0.28000891  0.24451369    -0.79700
O2692       O  0.51249197  0.19927616  0.25368261    -0.79600
O2693       O  0.52768207  0.29242583  0.22264979    -0.79600
O2694       O  0.92231021  0.17995403  0.24219797    -0.79700
C2695       C  0.93820293  0.17314573  0.22238113     1.10100
C2696       C  0.52448381  0.31461450  0.23157460     1.09900
C2697       C  0.93484138  0.26111537  0.22431508     1.10100
C2698       C  0.52573780  0.21350965  0.22508528     1.10000
O2699       O  0.50077055  0.21897668  0.32336918    -0.79600
O2700       O  0.96240891  0.29638713  0.31326964    -0.79700
O2701       O  0.93476529  0.19772328  0.31852033    -0.79600
O2702       O  0.54433539  0.29871163  0.29601934    -0.79600
O2703       O  0.50367018  0.27911429  0.32864600    -0.79700
O2704       O  0.95044180  0.16849423  0.29670946    -0.79600
O2705       O  0.54316917  0.24384383  0.29389662    -0.79600
O2706       O  0.92885166  0.24698754  0.30555324    -0.79700
Co2707     Co  0.98307028  0.20497551  0.27351165     1.51500
Co2708     Co  0.97813292  0.27578891  0.28655205     1.51700
Co2709     Co  0.93308053  0.21707961  0.27255031     1.51600
Co2710     Co  0.53216213  0.26666540  0.25782879     1.51500
O2711       O  0.98233970  0.24280093  0.26446976    -1.41600
C2712       C  0.52913189  0.22841108  0.32136380     1.10000
C2713       C  0.93663514  0.27276506  0.32028615     1.10100
C2714       C  0.93504628  0.17308102  0.31951042     1.10000
C2715       C  0.53173331  0.29884729  0.32514111     1.10000
N2716       N  0.81310336  0.40580869  0.59775642    -0.36100
N2717       N  0.78880247  0.35195031  0.64241632    -0.56700
N2718       N  0.75796227  0.37909697  0.68445264    -0.36100
N2719       N  0.78995549  0.43678366  0.64332981    -0.56700
C2720       C  0.82820945  0.39183760  0.58602996     0.27500
C2721       C  0.82841444  0.43499325  0.58619232     0.27500
C2722       C  0.75273832  0.35489876  0.70476303     0.27500
C2723       C  0.75347688  0.39833546  0.70539607     0.27500
C2724       C  0.79170494  0.34174470  0.61003015     0.36100
C2725       C  0.76515090  0.32789625  0.65875655     0.36100
C2726       C  0.79246954  0.44906438  0.61059613     0.36100
C2727       C  0.76710698  0.43822025  0.66017298     0.36100
C2728       C  0.85423471  0.41280290  0.56775473    -0.21400
C2729       C  0.85435553  0.44009263  0.56784235    -0.21400
C2730       C  0.74399664  0.35851735  0.73873607    -0.21400
C2731       C  0.74433741  0.38564315  0.73906241    -0.21400
C2732       C  0.76874595  0.31176175  0.60516247    -0.22400
C2733       C  0.75270570  0.30247879  0.63685211    -0.22400
C2734       C  0.76992070  0.45645393  0.60599718    -0.22400
C2735       C  0.75468073  0.45087457  0.63816401    -0.22400
C2736       C  0.81530830  0.35967787  0.58560514    -0.17800
C2737       C  0.81575141  0.45427198  0.58590780    -0.17800
C2738       C  0.75606258  0.42625329  0.69430468    -0.17800
C2739       C  0.75419603  0.32906214  0.69284921    -0.17800
H2740       H  0.87055179  0.40841708  0.55439032     0.15100
H2741       H  0.87077554  0.46089620  0.55454538     0.15100
H2742       H  0.73829694  0.34364777  0.76155743     0.15100
H2743       H  0.73887534  0.39487660  0.76208258     0.15100
H2744       H  0.76379723  0.29823804  0.58108262     0.13400
H2745       H  0.73304895  0.28027304  0.64240597     0.13400
H2746       H  0.76490598  0.46479447  0.58190453     0.13400
H2747       H  0.73551544  0.45394779  0.64400030     0.13400
H2748       H  0.79061497  0.39460766  0.60723396     0.26700
H2749       H  0.76249218  0.38139439  0.65706072     0.26700
N2750       N  0.81293599  0.40730811  0.94563330    -0.36100
N2751       N  0.79890824  0.44173499  0.89684905    -0.56700
N2752       N  0.78199199  0.39158759  0.84745003    -0.36100
N2753       N  0.79550609  0.35844638  0.89777374    -0.56700
C2754       C  0.82782904  0.43611964  0.95839076     0.27500
C2755       C  0.82746934  0.39318222  0.95807621     0.27500
C2756       C  0.78669455  0.41549354  0.82732425     0.27500
C2757       C  0.78770569  0.37323081  0.82691589     0.27500
C2758       C  0.79516140  0.45084202  0.92916669     0.36100
C2759       C  0.77805965  0.44211433  0.87520979     0.36100
C2760       C  0.79484637  0.34467855  0.92851766     0.36100
C2761       C  0.77899113  0.33661256  0.87382035     0.36100
C2762       C  0.85297097  0.44090625  0.97814311    -0.21400
C2763       C  0.85279489  0.41363612  0.97786070    -0.21400
C2764       C  0.79675871  0.41309545  0.79370502    -0.21400
C2765       C  0.79734903  0.38615334  0.79342087    -0.21400
C2766       C  0.77030531  0.45508813  0.92894768    -0.22400
C2767       C  0.76014398  0.45087919  0.89387606    -0.22400
C2768       C  0.77651244  0.31331096  0.92492254    -0.22400
C2769       C  0.76665535  0.30808164  0.88966674    -0.22400
C2770       C  0.81522315  0.45526615  0.95725055    -0.17800
C2771       C  0.81473008  0.36121968  0.95663092    -0.17800
C2772       C  0.78005012  0.34364528  0.83740893    -0.17800
C2773       C  0.77781494  0.43627992  0.83869306    -0.17800
H2774       H  0.86980219  0.46078281  0.49140849     0.15100
H2775       H  0.86866668  0.40778210  0.49152232     0.15100
H2776       H  0.80190430  0.42837019  0.77133622     0.15100
H2777       H  0.80300122  0.37664869  0.77077055     0.15100
H2778       H  0.76050791  0.46039859  0.95155728     0.13400
H2779       H  0.74137923  0.45308930  0.88373408     0.13400
H2780       H  0.77264446  0.29616935  0.94459529     0.13400
H2781       H  0.75340971  0.28599880  0.87698724     0.13400
H2782       H  0.79107317  0.39647044  0.93436418     0.26700
H2783       H  0.77102987  0.38592364  0.87223949     0.26700
N2784       N  0.89583723  0.07503256  0.94281247    -0.36100
N2785       N  0.92405654  0.12864694  0.90107509    -0.56700
N2786       N  0.87070455  0.09978454  0.85394190    -0.36100
N2787       N  0.84101748  0.04331757  0.89698237    -0.56700
C2788       C  0.92519064  0.08900289  0.95422864     0.27500
C2789       C  0.88223798  0.04551884  0.95278210     0.27500
C2790       C  0.88786729  0.12706736  0.83754718     0.27500
C2791       C  0.84265279  0.08564509  0.83825612     0.27500
C2792       C  0.94119240  0.13975436  0.93075674     0.36100
C2793       C  0.93064345  0.15267095  0.88048372     0.36100
C2794       C  0.83159843  0.03101244  0.92995481     0.36100
C2795       C  0.81672981  0.04263595  0.88094759     0.36100
C2796       C  0.93073734  0.06787332  0.97051894    -0.21400
C2797       C  0.90350404  0.04029554  0.96960957    -0.21400
C2798       C  0.87073531  0.13068912  0.81156636    -0.21400
C2799       C  0.84226824  0.10519281  0.81240326    -0.21400
C2800       C  0.95797518  0.17136487  0.92982619    -0.22400
C2801       C  0.95194384  0.17955621  0.89710973    -0.22400
C2802       C  0.80188318  0.02422641  0.93563002    -0.22400
C2803       C  0.79211647  0.03049022  0.90405417    -0.22400
C2804       C  0.94494981  0.12101065  0.95507424    -0.17800
C2805       C  0.85013499  0.02624525  0.95436716    -0.17800
C2806       C  0.81736625  0.05629991  0.84771977    -0.17800
C2807       C  0.91772500  0.15026978  0.84683257    -0.17800
H2808       H  0.94943885  0.07144840  0.48442645     0.15100
H2809       H  0.89663239  0.01869611  0.48306937     0.15100
H2810       H  0.87742396  0.15055397  0.79511781     0.15100
H2811       H  0.82350980  0.10337354  0.79689705     0.15100
H2812       H  0.97442374  0.18664660  0.94933114     0.13400
H2813       H  0.96185152  0.20252203  0.88686634     0.13400
H2814       H  0.78670329  0.51124068  0.95706857     0.13400
H2815       H  0.77035289  0.02869419  0.89952419     0.13400
H2816       H  0.88416350  0.08603438  0.93493905     0.26700
H2817       H  0.87835583  0.09071875  0.87328215     0.26700
N2818       N  0.90238933  0.07481019  0.59812522    -0.36100
N2819       N  0.93461102  0.12746072  0.64453031    -0.56700
N2820       N  0.88102177  0.09529578  0.69111496    -0.36100
N2821       N  0.85103054  0.04154744  0.64551829    -0.56700
C2822       C  0.93112411  0.08956917  0.58477394     0.27500
C2823       C  0.88765892  0.04634583  0.58416473     0.27500
C2824       C  0.90258581  0.11757345  0.71173069     0.27500
C2825       C  0.86128789  0.07285518  0.71307204     0.27500
C2826       C  0.94508340  0.13858297  0.61159638     0.36100
C2827       C  0.93393358  0.14990261  0.66300001     0.36100
C2828       C  0.83900593  0.03096221  0.61296043     0.36100
C2829       C  0.82830559  0.04017464  0.66556808     0.36100
C2830       C  0.93528925  0.06965203  0.56336241    -0.21400
C2831       C  0.90768505  0.04231834  0.56281967    -0.21400
C2832       C  0.89745367  0.10865888  0.74715096    -0.21400
C2833       C  0.87110316  0.08038588  0.74810770    -0.21400
C2834       C  0.94964944  0.16769826  0.60857472    -0.22400
C2835       C  0.94379434  0.17545995  0.64189306    -0.22400
C2836       C  0.80897416  0.02416376  0.61168219    -0.22400
C2837       C  0.80161299  0.02871817  0.64570970    -0.22400
C2838       C  0.94994220  0.12178250  0.58503764    -0.17800
C2839       C  0.85546318  0.02700854  0.58545363    -0.17800
C2840       C  0.83254491  0.04912165  0.70157658    -0.17800
C2841       C  0.92414335  0.14659466  0.69865456    -0.17800
H2842       H  0.95543962  0.07499627  0.54788820     0.15100
H2843       H  0.90242154  0.02236403  0.54710049     0.15100
H2844       H  0.91091280  0.12129381  0.76991500     0.15100
H2845       H  0.86013223  0.06739027  0.77189593     0.15100
H2846       H  0.95611886  0.18163107  0.58479032     0.13400
H2847       H  0.94515379  0.19669314  0.64925401     0.13400
H2848       H  0.79455645  0.51572704  0.58765146     0.13400
H2849       H  0.77964522  0.02527032  0.65402526     0.13400
H2850       H  0.89165043  0.08530273  0.61036990     0.26700
H2851       H  0.87740551  0.09747195  0.66413854     0.26700
C2852       C  0.83921121  0.00752841  0.55390763     0.02800
C2853       C  0.82147062  0.47402210  0.55371667     0.02800
C2854       C  0.81073416  0.45877159  0.52093908    -0.17800
C2855       C  0.81931020  0.47487536  0.98881429     0.02800
C2856       C  0.83708990  0.00734536  0.98761426     0.02800
C2857       C  0.84295133  0.02263490  0.52114461    -0.17800
H2858       H  0.85518776  0.04738636  0.52099695     0.04800
H2859       H  0.79756691  0.43401478  0.52090510     0.04800
N2860       N  0.89824207  0.32653177  0.94283126    -0.36100
N2861       N  0.82663745  0.28750716  0.90819088    -0.56700
N2862       N  0.86667364  0.27156420  0.85692999    -0.36100
N2863       N  0.92888187  0.30662274  0.89807023    -0.57300
C2864       C  0.88423106  0.34111638  0.95521467     0.27500
C2865       C  0.92670028  0.34042216  0.95726531     0.27500
C2866       C  0.83757973  0.25446843  0.84440890     0.27500
C2867       C  0.88398750  0.26149631  0.84116803     0.27500
C2868       C  0.83820275  0.31689665  0.91929773     0.36100
C2869       C  0.82106151  0.28705762  0.87239369     0.36100
C2870       C  0.94126827  0.30674606  0.92994955     0.36100
C2871       C  0.92840412  0.28386548  0.87965248     0.36100
C2872       C  0.90420990  0.36544234  0.97653109    -0.21400
C2873       C  0.93126262  0.36509444  0.97768186    -0.21400
C2874       C  0.83617159  0.23177150  0.82223201    -0.21400
C2875       C  0.86550239  0.23657215  0.81971116    -0.21400
C2876       C  0.84348752  0.33529290  0.88978741    -0.22400
C2877       C  0.83163885  0.31640778  0.86044288    -0.22400
C2878       C  0.94749371  0.28335764  0.93214055    -0.22400
C2879       C  0.94038045  0.26935420  0.89929618    -0.22400
C2880       C  0.85245615  0.32885786  0.95283564    -0.17800
C2881       C  0.94577769  0.32764244  0.95680512    -0.17800
C2882       C  0.91606431  0.27514741  0.84580556    -0.17800
C2883       C  0.81459935  0.26262414  0.84864748    -0.17800
H2884       H  0.89956832  0.38144678  0.48989649     0.15100
H2885       H  0.95173591  0.38074893  0.49289738     0.15100
H2886       H  0.81650095  0.21380861  0.80849793     0.15100
H2887       H  0.87211389  0.22300407  0.80394059     0.15100
H2888       H  0.85530976  0.35996735  0.88954511     0.13400
H2889       H  0.83328792  0.32365315  0.83297387     0.13400
H2890       H  0.95488385  0.27631421  0.95542843     0.13400
H2891       H  0.94190212  0.24966210  0.89143140     0.13400
H2892       H  0.88677525  0.30508308  0.93074895     0.26700
H2893       H  0.87520174  0.29142069  0.87213966     0.26700
N2894       N  0.89879197  0.32400460  0.59838202    -0.36100
N2895       N  0.93036267  0.30222934  0.64562215    -0.56700
N2896       N  0.87664808  0.27934997  0.68992496    -0.36100
N2897       N  0.84742490  0.30494577  0.64378720    -0.56700
C2898       C  0.92824673  0.33898348  0.58763122     0.27500
C2899       C  0.88509400  0.33872445  0.58483937     0.27500
C2900       C  0.89727950  0.27752593  0.71115443     0.27500
C2901       C  0.85576410  0.28053049  0.71138830     0.27500
C2902       C  0.94127381  0.30275229  0.61267078     0.36100
C2903       C  0.93052612  0.27924640  0.66330300     0.36100
C2904       C  0.83570460  0.30500907  0.61138573     0.36100
C2905       C  0.82439336  0.28291796  0.66303952     0.36100
C2906       C  0.93385548  0.36456479  0.56836543    -0.21400
C2907       C  0.90644501  0.36430794  0.56646597    -0.21400
C2908       C  0.88989985  0.27837797  0.74649517    -0.21400
C2909       C  0.86358037  0.28008587  0.74679638    -0.21400
C2910       C  0.94694702  0.27898436  0.60872098    -0.22400
C2911       C  0.94129740  0.26471778  0.64160532    -0.22400
C2912       C  0.80549627  0.28197844  0.60940413    -0.22400
C2913       C  0.79777856  0.26874859  0.64283075    -0.22400
C2914       C  0.94670518  0.32544504  0.58745378    -0.17800
C2915       C  0.85296580  0.32606608  0.58444043    -0.17800
C2916       C  0.82784132  0.27715640  0.69900675    -0.17800
C2917       C  0.92026916  0.27181087  0.69862946    -0.17800
H2918       H  0.95501809  0.38058176  0.55528941     0.15100
H2919       H  0.90235095  0.38033550  0.55220629     0.15100
H2920       H  0.90203334  0.27743782  0.76949802     0.15100
H2921       H  0.85130883  0.28016317  0.77039595     0.15100
H2922       H  0.95455735  0.27280611  0.58477038     0.13400
H2923       H  0.94354084  0.24527663  0.64829248     0.13400
H2924       H  0.79092914  0.27492353  0.58605925     0.13400
H2925       H  0.77561844  0.24999245  0.65056484     0.13400
H2926       H  0.88738901  0.30189236  0.60851677     0.26700
H2927       H  0.87452608  0.27575672  0.66236681     0.26700
N2928       N  0.56452932  0.40863477  0.60150569    -0.36100
N2929       N  0.52954949  0.35843575  0.64975246    -0.56700
N2930       N  0.58503041  0.38773118  0.69521989    -0.36100
N2931       N  0.61768565  0.43971886  0.64730068    -0.56700
C2932       C  0.53593634  0.39436088  0.58772854     0.27500
C2933       C  0.57954725  0.43718930  0.58819012     0.27500
C2934       C  0.56218317  0.36892995  0.71767057     0.27500
C2935       C  0.60807709  0.40924132  0.71534062     0.27500
C2936       C  0.51971226  0.34617657  0.61688995     0.36100
C2937       C  0.52820505  0.33613912  0.67050027     0.36100
C2938       C  0.62904966  0.45118551  0.61464880     0.36100
C2939       C  0.64071097  0.44046447  0.66629846     0.36100
C2940       C  0.53201101  0.41452185  0.56686285    -0.21400
C2941       C  0.55960726  0.44174790  0.56733260    -0.21400
C2942       C  0.57045287  0.37921098  0.75245076    -0.21400
C2943       C  0.59925701  0.40500098  0.75076149    -0.21400
C2944       C  0.01317211  0.31468991  0.61650623    -0.22400
C2945       C  0.51779234  0.30961856  0.65056851    -0.22400
C2946       C  0.65915305  0.45806645  0.61236216    -0.22400
C2947       C  0.66697990  0.45239807  0.64573881    -0.22400
C2948       C  0.51661254  0.36239023  0.58830513    -0.17800
C2949       C  0.61186429  0.45552663  0.58793741    -0.17800
C2950       C  0.63746131  0.43061376  0.70208465    -0.17800
C2951       C  0.53687458  0.34064594  0.70691374    -0.17800
H2952       H  0.51200230  0.40954511  0.55135616     0.15100
H2953       H  0.56508909  0.46184205  0.55201742     0.15100
H2954       H  0.55736631  0.36910838  0.77649336     0.15100
H2955       H  0.61227472  0.41915837  0.77290967     0.15100
H2956       H  0.00666928  0.29937367  0.59386307     0.13400
H2957       H  0.01329941  0.28651309  0.66030003     0.13400
H2958       H  0.67381794  0.46620940  0.58910204     0.13400
H2959       H  0.68895101  0.45559957  0.65359631     0.13400
H2960       H  0.57484598  0.39763362  0.61336612     0.26700
H2961       H  0.58656427  0.38372041  0.66818067     0.26700
N2962       N  0.56396946  0.40534681  0.94352653    -0.36100
N2963       N  0.61586100  0.44042040  0.89723588    -0.56700
N2964       N  0.59025704  0.37962103  0.85562095    -0.36100
N2965       N  0.53565968  0.34896848  0.90011938    -0.56700
C2966       C  0.57717425  0.43427911  0.95617273     0.27500
C2967       C  0.53474801  0.39018895  0.95514518     0.27500
C2968       C  0.61689746  0.39801839  0.83832761     0.27500
C2969       C  0.57747253  0.35121921  0.84100576     0.27500
C2970       C  0.62653805  0.45053286  0.93040248     0.36100
C2971       C  0.63901200  0.44030609  0.88008761     0.36100
C2972       C  0.52170890  0.33942966  0.93221220     0.36100
C2973       C  0.53434918  0.32449686  0.88391644     0.36100
C2974       C  0.55577965  0.43806950  0.97483187    -0.21400
C2975       C  0.52883444  0.41020372  0.97398865    -0.21400
C2976       C  0.62214656  0.38115585  0.81337003    -0.21400
C2977       C  0.59758986  0.35173139  0.81512541    -0.21400
C2978       C  0.65556580  0.45498840  0.93486387    -0.22400
C2979       C  0.66405146  0.44943313  0.90215065    -0.22400
C2980       C  0.01472331  0.31015010  0.93816071    -0.22400
C2981       C  0.51947054  0.29921249  0.90578294    -0.22400
C2982       C  0.60919122  0.45448692  0.95638755    -0.17800
C2983       C  0.51662200  0.35798022  0.95634655    -0.17800
C2984       C  0.54860604  0.32512124  0.85103733    -0.17800
C2985       C  0.63677766  0.42941520  0.84569457    -0.17800
H2986       H  0.56051699  0.45958756  0.48894627     0.15100
H2987       H  0.50828321  0.40644837  0.48733719     0.15100
H2988       H  0.64199198  0.38898949  0.79635347     0.15100
H2989       H  0.59608261  0.33300222  0.79981579     0.15100
H2990       H  0.66861984  0.46052288  0.95939503     0.13400
H2991       H  0.68523694  0.45009968  0.89584480     0.13400
H2992       H  0.00586463  0.29732863  0.96261051     0.13400
H2993       H  0.01948734  0.27787678  0.90325654     0.13400
H2994       H  0.57584675  0.39511490  0.93367496     0.26700
H2995       H  0.58077589  0.38722287  0.87456336     0.26700
N2996       N  0.64239084  0.06876094  0.59914882    -0.36100
N2997       N  0.66993229  0.13093419  0.63991128    -0.56700
N2998       N  0.67878642  0.08783913  0.69527920    -0.36100
N2999       N  0.66294898  0.03768650  0.64675550    -0.56700
C3000       C  0.62712441  0.08134342  0.58472692     0.27500
C3001       C  0.63043011  0.04051563  0.58510852     0.27500
C3002       C  0.68168548  0.11055584  0.71619396     0.27500
C3003       C  0.68248081  0.06845202  0.71629933     0.27500
C3004       C  0.64445764  0.12558239  0.62188674     0.36100
C3005       C  0.66549146  0.13604254  0.67437002     0.36100
C3006       C  0.66585051  0.02852330  0.61396253     0.36100
C3007       C  0.68518129  0.03824985  0.66691066     0.36100
C3008       C  0.60402114  0.06048713  0.56271219    -0.21400
C3009       C  0.60602379  0.03446163  0.56306488    -0.21400
C3010       C  0.68594131  0.10511032  0.75144094    -0.21400
C3011       C  0.68606408  0.07825996  0.75156691    -0.21400
C3012       C  0.62261326  0.12343632  0.64591840    -0.22400
C3013       C  0.63637593  0.13137213  0.67894154    -0.22400
C3014       C  0.69056438  0.02416399  0.61268384    -0.22400
C3015       C  0.70232620  0.02927791  0.64681601    -0.22400
C3016       C  0.63672979  0.11243022  0.58758761    -0.17800
C3017       C  0.64535424  0.02351244  0.58622149    -0.17800
C3018       C  0.68903618  0.04644980  0.70322961    -0.17800
C3019       C  0.68378697  0.13728134  0.70316645    -0.17800
H3020       H  0.58804706  0.06410649  0.54744651     0.15100
H3021       H  0.59222378  0.01402580  0.54755765     0.15100
H3022       H  0.68956712  0.11928203  0.77460272     0.15100
H3023       H  0.69049060  0.06850374  0.77474028     0.15100
H3024       H  0.59878901  0.11560535  0.64034651     0.13400
H3025       H  0.62544022  0.13101331  0.70396482     0.13400
H3026       H  0.69928719  0.51874812  0.59105281     0.13400
H3027       H  0.72105073  0.52783785  0.65684428     0.13400
H3028       H  0.66356681  0.08103461  0.61238114     0.26700
H3029       H  0.67928889  0.08862533  0.66713325     0.26700
N3030       N  0.65020233  0.07248048  0.94260134    -0.36100
N3031       N  0.67793497  0.04576137  0.89864807    -0.56700
N3032       N  0.70623993  0.10242889  0.85686071    -0.36100
N3033       N  0.68322437  0.13583470  0.90792819    -0.56700
C3034       C  0.63580567  0.04310568  0.95359760     0.27500
C3035       C  0.63341075  0.08449515  0.95456351     0.27500
C3036       C  0.72097480  0.08865051  0.84245765     0.27500
C3037       C  0.72017667  0.13171974  0.84482750     0.27500
C3038       C  0.67269347  0.03002734  0.92960450     0.36100
C3039       C  0.69906788  0.04233342  0.88037541     0.36100
C3040       C  0.65659797  0.13178057  0.92204270     0.36100
C3041       C  0.68414131  0.14463975  0.87343891     0.36100
C3042       C  0.60878801  0.03606480  0.97075693    -0.21400
C3043       C  0.60733321  0.06235575  0.97146207    -0.21400
C3044       C  0.74518811  0.11002487  0.82188736    -0.21400
C3045       C  0.74489643  0.13694577  0.82368104    -0.21400
C3046       C  0.69193822  0.01840104  0.93188382    -0.22400
C3047       C  0.70725820  0.02458195  0.89986528    -0.22400
C3048       C  0.63930024  0.13416473  0.89506442    -0.22400
C3049       C  0.65725006  0.14397584  0.86499324    -0.22400
C3050       C  0.64952540  0.02493126  0.95453069    -0.17800
C3051       C  0.64303301  0.11571921  0.95390791    -0.17800
C3052       C  0.70820176  0.15176430  0.84873651    -0.17800
C3053       C  0.71401461  0.05781172  0.84860045    -0.17800
H3054       H  0.59372754  0.01500096  0.48548776     0.15100
H3055       H  0.58981231  0.06516712  0.48526008     0.15100
H3056       H  0.76255841  0.10744548  0.80828090     0.15100
H3057       H  0.76158512  0.15792055  0.81098215     0.15100
H3058       H  0.69808463  0.51158848  0.95832607     0.13400
H3059       H  0.72861660  0.52446756  0.89739982     0.13400
H3060       H  0.61548756  0.12791609  0.89644349     0.13400
H3061       H  0.65017272  0.14752960  0.83904999     0.13400
H3062       H  0.67253807  0.08496976  0.93294564     0.26700
H3063       H  0.68588551  0.09184478  0.87125705     0.26700
C3064       C  0.63683145  0.12958955  0.55447017     0.02800
C3065       C  0.62836227  0.15216154  0.55412651     0.02800
C3066       C  0.62503305  0.16329969  0.52117961    -0.17800
C3067       C  0.62741979  0.15100465  0.98817991     0.02800
C3068       C  0.63831348  0.13015714  0.98740528     0.02800
C3069       C  0.64418816  0.12134976  0.52113222    -0.17800
H3070       H  0.65303613  0.10592442  0.52133454     0.04800
H3071       H  0.61670566  0.17921630  0.52122465     0.04800
N3072       N  0.56523236  0.15649749  0.94317628    -0.36100
N3073       N  0.61986943  0.18720227  0.90450576    -0.56700
N3074       N  0.59087569  0.21214961  0.85816801    -0.36100
N3075       N  0.53467226  0.19115879  0.90721497    -0.56700
C3076       C  0.58071660  0.14365160  0.95701566     0.27500
C3077       C  0.53593785  0.13957581  0.95381556     0.27500
C3078       C  0.61862599  0.22352073  0.84242686     0.27500
C3079       C  0.57733080  0.22695317  0.84412099     0.27500
C3080       C  0.63134317  0.18114547  0.93370609     0.36100
C3081       C  0.64380866  0.20549549  0.88391356     0.36100
C3082       C  0.51306952  0.16291154  0.91875009     0.36100
C3083       C  0.52773650  0.19301211  0.87245578     0.36100
C3084       C  0.56054657  0.11748782  0.97556905    -0.21400
C3085       C  0.53220796  0.11511124  0.97387856    -0.21400
C3086       C  0.62310979  0.24603129  0.81851712    -0.21400
C3087       C  0.59759739  0.24889830  0.82027927    -0.21400
C3088       C  0.66304669  0.19682418  0.93244382    -0.22400
C3089       C  0.67095217  0.21158008  0.90002132    -0.22400
C3090       C  0.99618174  0.14707608  0.88982111    -0.22400
C3091       C  0.50324057  0.16534653  0.86145598    -0.22400
C3092       C  0.61306515  0.15759922  0.95753386    -0.17800
C3093       C  0.51451393  0.14924289  0.95100361    -0.17800
C3094       C  0.54585379  0.21750198  0.84864184    -0.17800
C3095       C  0.64110201  0.21581592  0.85038665    -0.17800
H3096       H  0.56526303  0.10272609  0.48980169     0.15100
H3097       H  0.51086114  0.09871862  0.48594362     0.15100
H3098       H  0.64328131  0.25985880  0.80247396     0.15100
H3099       H  0.59501686  0.26551646  0.80527697     0.15100
H3100       H  0.67857366  0.19570954  0.95138706     0.13400
H3101       H  0.69393906  0.22525263  0.88962086     0.13400
H3102       H  0.97916611  0.12300518  0.88978233     0.13400
H3103       H  0.99494631  0.16007446  0.83435442     0.13400
H3104       H  0.57460230  0.17843061  0.93291520     0.26700
H3105       H  0.58042458  0.19315701  0.87476948     0.26700
N3106       N  0.56846148  0.16141935  0.59529665    -0.36100
N3107       N  0.62105365  0.18626678  0.64088436    -0.56700
N3108       N  0.58938285  0.20407940  0.68869541    -0.36100
N3109       N  0.53497877  0.17826448  0.64176899    -0.56700
C3110       C  0.58266047  0.14645201  0.58458359     0.27500
C3111       C  0.53960639  0.14599424  0.58235262     0.27500
C3112       C  0.61123886  0.20493215  0.71002195     0.27500
C3113       C  0.56616516  0.20006024  0.71006515     0.27500
C3114       C  0.63302143  0.18126760  0.61121807     0.36100
C3115       C  0.64450062  0.20415872  0.66282087     0.36100
C3116       C  0.52359671  0.17873858  0.60936017     0.36100
C3117       C  0.53316144  0.19914485  0.66210493     0.36100
C3118       C  0.56213327  0.12032245  0.56597849    -0.21400
C3119       C  0.53484445  0.12015401  0.56436512    -0.21400
C3120       C  0.60147509  0.20063303  0.74521139    -0.21400
C3121       C  0.57305643  0.19772637  0.74536657    -0.21400
C3122       C  0.66468430  0.19652615  0.61391608    -0.22400
C3123       C  0.67198158  0.21085936  0.64699646    -0.22400
C3124       C  0.01628453  0.20109619  0.60823989    -0.22400
C3125       C  0.52068627  0.21330729  0.64253331    -0.22400
C3126       C  0.61474182  0.15928942  0.58518159    -0.17800
C3127       C  0.52015626  0.15821556  0.58194434    -0.17800
C3128       C  0.54200549  0.20379671  0.69826871    -0.17800
C3129       C  0.64016542  0.21090117  0.69825128    -0.17800
H3130       H  0.56690717  0.10401730  0.55337507     0.15100
H3131       H  0.51431688  0.10372040  0.55042564     0.15100
H3132       H  0.61348317  0.19978392  0.76846174     0.15100
H3133       H  0.55965377  0.19493826  0.76903599     0.15100
H3134       H  0.68056515  0.19578118  0.59515453     0.13400
H3135       H  0.69465603  0.22373291  0.65854868     0.13400
H3136       H  0.00826509  0.20792994  0.58530101     0.13400
H3137       H  0.01691774  0.23121139  0.65097254     0.13400
H3138       H  0.57930829  0.18373749  0.60503011     0.26700
H3139       H  0.59182204  0.21001919  0.66171984     0.26700
C3140       C  0.99829444  0.14939564  0.98376106     0.02800
C3141       C  0.96594609  0.13479641  0.98589926     0.02800
C3142       C  0.95109874  0.12996369  0.52010340    -0.17800
C3143       C  0.96794860  0.13674056  0.55197304     0.02800
C3144       C  0.00038957  0.15241134  0.54999252     0.02800
C3145       C  0.51421400  0.15966418  0.51601106    -0.17800
H3146       H  0.53901748  0.17140180  0.51477933     0.04800
H3147       H  0.92628538  0.11817561  0.52174557     0.04800
C3148       C  0.64317462  0.00494241  0.55439294     0.02800
C3149       C  0.62665553  0.47405011  0.55505353     0.02800
C3150       C  0.61870281  0.45844212  0.52219955    -0.17800
C3151       C  0.62448812  0.47337325  0.98867868     0.02800
C3152       C  0.64338671  0.00509450  0.98703218     0.02800
C3153       C  0.65375243  0.02058793  0.52175690    -0.17800
H3154       H  0.66701229  0.04533218  0.52221891     0.04800
H3155       H  0.60493421  0.43372307  0.52230034     0.04800
C3156       C  0.96477535  0.33082842  0.98879009     0.02800
C3157       C  0.99715459  0.34491490  0.98843374     0.02800
C3158       C  0.51311310  0.35257285  0.52255750    -0.17800
C3159       C  0.99790717  0.34477627  0.55502777     0.02800
C3160       C  0.96546520  0.32968392  0.55501029     0.02800
C3161       C  0.94974052  0.32191480  0.52224068    -0.17800
H3162       H  0.92493412  0.31081638  0.52238359     0.04800
H3163       H  0.53795877  0.36494129  0.52247333     0.04800
C3164       C  0.83803967  0.33061128  0.55215471     0.02800
C3165       C  0.82052528  0.34539600  0.55307219     0.02800
C3166       C  0.80995397  0.35040394  0.52063622    -0.17800
C3167       C  0.81945080  0.34603553  0.98768116     0.02800
C3168       C  0.83625247  0.33069516  0.98606773     0.02800
C3169       C  0.84427468  0.32205634  0.51848877    -0.17800
H3170       H  0.85789369  0.31111320  0.51783123     0.04800
H3171       H  0.79684745  0.36191653  0.52129748     0.04800
O3172       O  0.79016936  0.32010558  0.78872553    -0.79600
O3173       O  0.70243280  0.19188748  0.82285959    -0.79700
O3174       O  0.69051120  0.24247733  0.82318494    -0.79700
O3175       O  0.78714618  0.23655301  0.79396006    -0.79600
O3176       O  0.65656331  0.20012576  0.79918067    -0.79700
O3177       O  0.77332873  0.26589435  0.82053335    -0.79600
O3178       O  0.73282655  0.18077214  0.79479888    -0.79600
O3179       O  0.74281176  0.29737221  0.81114896    -0.79700
C3180       C  0.77077006  0.31968967  0.81050435     1.10100
C3181       C  0.71566290  0.17667887  0.82150756     1.09900
C3182       C  0.66357134  0.22002391  0.82287491     1.10100
C3183       C  0.78984948  0.25381490  0.82029930     1.10000
O3184       O  0.80329491  0.28087591  0.75167822    -0.79600
O3185       O  0.67507140  0.20214191  0.72938059    -0.79700
O3186       O  0.72268376  0.29397315  0.73737140    -0.79600
O3187       O  0.72234700  0.18727884  0.71966035    -0.79600
O3188       O  0.68296103  0.16265071  0.75558268    -0.79700
O3189       O  0.76447659  0.29470959  0.72491973    -0.79600
O3190       O  0.77715328  0.24134377  0.71721486    -0.79600
O3191       O  0.67158287  0.24106189  0.74712307    -0.79700
Co3192     Co  0.76622056  0.27927515  0.77321934     1.51500
Co3193     Co  0.69211716  0.20181887  0.77601631     1.51700
Co3194     Co  0.70925444  0.26542439  0.77817429     1.51600
Co3195     Co  0.75313576  0.21388007  0.75686720     1.51500
O3196       O  0.73094235  0.23912302  0.76367681    -1.41600
C3197       C  0.80152548  0.26601034  0.72369482     1.10000
C3198       C  0.66434807  0.21923080  0.72533419     1.10100
C3199       C  0.74615074  0.30375180  0.71845970     1.10000
C3200       C  0.69679299  0.16368579  0.72707456     1.10000
O3201       O  0.76688297  0.47134613  0.72669774    -0.79600
O3202       O  0.69043890  0.02175548  0.75647615    -0.79700
O3203       O  0.67212334  0.43024197  0.74596006    -0.79700
O3204       O  0.78313336  0.03854004  0.71833529    -0.79600
O3205       O  0.67705339  0.47317452  0.73273651    -0.79700
O3206       O  0.80662710  0.02378436  0.75497741    -0.79600
O3207       O  0.72910072  0.03800914  0.71902656    -0.79600
O3208       O  0.72461944  0.43041479  0.73885230    -0.79700
C3209       C  0.74835071  0.44381618  0.72020130     1.10100
C3210       C  0.70347490  0.03474245  0.72732478     1.09900
C3211       C  0.66398547  0.44531641  0.72725627     1.10100
C3212       C  0.80621919  0.03649680  0.72611033     1.10000
O3213       O  0.77371156  0.01070599  0.82289077    -0.79600
O3214       O  0.65701896  0.46891562  0.80205469    -0.79700
O3215       O  0.74195124  0.44825407  0.81331837    -0.79600
O3216       O  0.73726109  0.05459101  0.79332955    -0.79600
O3217       O  0.71359104  0.01290382  0.82413371    -0.79700
O3218       O  0.78969659  0.47143423  0.79191055    -0.79600
O3219       O  0.79028320  0.05295447  0.79370999    -0.79600
O3220       O  0.68657301  0.45085171  0.81974061    -0.79700
Co3221     Co  0.76761298  0.48923353  0.77446893     1.51500
Co3222     Co  0.69624583  0.49039020  0.77961117     1.51700
Co3223     Co  0.70973151  0.44667838  0.77743905     1.51600
Co3224     Co  0.75827290  0.04245344  0.75620178     1.51500
O3225       O  0.73449202  0.49605762  0.76115141    -1.41600
C3226       C  0.79135087  0.03933081  0.82142253     1.10000
C3227       C  0.66064868  0.44984072  0.82036949     1.10100
C3228       C  0.76937921  0.45230099  0.81278371     1.10000
C3229       C  0.72334416  0.04130797  0.82175763     1.10000
O3230       O  0.96684083  0.18631393  0.72761789    -0.79600
O3231       O  0.51204346  0.31434903  0.76188059    -0.79700
O3232       O  0.92446564  0.23271256  0.72874808    -0.79700
O3233       O  0.52649454  0.23820086  0.71826644    -0.79600
O3234       O  0.95601430  0.27968650  0.74421844    -0.79700
O3235       O  0.51574527  0.19949307  0.75245679    -0.79600
O3236       O  0.52560237  0.29110994  0.72260302    -0.79600
O3237       O  0.92262759  0.17967376  0.74304897    -0.79700
C3238       C  0.93857744  0.17284203  0.72337608     1.10100
C3239       C  0.52393674  0.31411752  0.73173228     1.09900
C3240       C  0.93494778  0.26070526  0.72414769     1.10100
C3241       C  0.52761770  0.21438146  0.72413377     1.10000
O3242       O  0.50100933  0.21306169  0.82209434    -0.79600
O3243       O  0.96239655  0.29647192  0.81262140    -0.79700
O3244       O  0.93528117  0.19832577  0.81893535    -0.79600
O3245       O  0.54385787  0.29837535  0.79597409    -0.79600
O3246       O  0.50354504  0.27918804  0.82922085    -0.79700
O3247       O  0.95099032  0.16897181  0.79752645    -0.79600
O3248       O  0.54319480  0.24401998  0.79511452    -0.79600
O3249       O  0.92859908  0.24707378  0.80521537    -0.79700
Co3250     Co  0.98360352  0.20524720  0.77411697     1.51500
Co3251     Co  0.97822920  0.27575051  0.78657039     1.51700
Co3252     Co  0.93334430  0.21712431  0.77277130     1.51600
Co3253     Co  0.53059817  0.26583594  0.75827154     1.51500
O3254       O  0.98267553  0.24286443  0.76483238    -1.41600
C3255       C  0.52953554  0.22621906  0.82139819     1.10000
C3256       C  0.93646796  0.27303735  0.81949712     1.10100
C3257       C  0.93552347  0.17368210  0.82008608     1.10000
C3258       C  0.53170011  0.29851913  0.82539380     1.10000
N3259       N  0.81445213  0.90684922  0.09815260    -0.36100
N3260       N  0.79039225  0.85295185  0.14356277    -0.56700
N3261       N  0.75916605  0.87954094  0.18484999    -0.36100
N3262       N  0.79098817  0.93726184  0.14317645    -0.56700
C3263       C  0.82943044  0.89274319  0.08644135     0.27500
C3264       C  0.82981520  0.93601528  0.08638190     0.27500
C3265       C  0.75341966  0.85522604  0.20534194     0.27500
C3266       C  0.75395004  0.89857715  0.20521199     0.27500
C3267       C  0.79354760  0.84258220  0.11138216     0.36100
C3268       C  0.76743385  0.82860427  0.16045671     0.36100
C3269       C  0.79433483  0.95066273  0.11099888     0.36100
C3270       C  0.76846672  0.93911682  0.16020713     0.36100
C3271       C  0.85536663  0.91356919  0.06789980    -0.21400
C3272       C  0.85562556  0.94092593  0.06789669    -0.21400
C3273       C  0.74344818  0.85851094  0.23871349    -0.21400
C3274       C  0.74370619  0.88559657  0.23857942    -0.21400
C3275       C  0.77150810  0.81219684  0.10729750    -0.22400
C3276       C  0.75586196  0.80287599  0.13918026    -0.22400
C3277       C  0.77272444  0.95936506  0.10696865    -0.22400
C3278       C  0.75727737  0.95343233  0.13898574    -0.22400
C3279       C  0.81650607  0.86055258  0.08627464    -0.17800
C3280       C  0.81739718  0.95553856  0.08617233    -0.17800
C3281       C  0.75690258  0.92663394  0.19400149    -0.17800
C3282       C  0.75570160  0.82966054  0.19413620    -0.17800
H3283       H  0.87154736  0.90905535  0.05442720     0.15100
H3284       H  0.87204999  0.96165188  0.05446399     0.15100
H3285       H  0.73707612  0.84350118  0.26148746     0.15100
H3286       H  0.73748609  0.89466707  0.26112978     0.15100
H3287       H  0.76675803  0.79845395  0.08345720     0.13400
H3288       H  0.73680112  0.78039325  0.14515467     0.13400
H3289       H  0.76837149  0.96868762  0.08328005     0.13400
H3290       H  0.73874805  0.95742136  0.14518238     0.13400
H3291       H  0.79203928  0.89568686  0.10769374     0.26700
H3292       H  0.76464357  0.88215171  0.15779549     0.26700
N3293       N  0.81375983  0.90721395  0.44621471    -0.36100
N3294       N  0.80020707  0.94182253  0.39683998    -0.56700
N3295       N  0.78191954  0.89111742  0.34843567    -0.36100
N3296       N  0.79472154  0.85772146  0.39937211    -0.56700
C3297       C  0.82902424  0.93609933  0.45864433     0.27500
C3298       C  0.82773216  0.89269043  0.45919453     0.27500
C3299       C  0.78647229  0.91471984  0.32779150     0.27500
C3300       C  0.78708845  0.87226664  0.32811026     0.27500
C3301       C  0.79723138  0.95185905  0.42891212     0.36100
C3302       C  0.77987684  0.94317112  0.37517581     0.36100
C3303       C  0.79430034  0.84406520  0.43011495     0.36100
C3304       C  0.77822224  0.83582653  0.37548585     0.36100
C3305       C  0.85385204  0.94052444  0.47882454    -0.21400
C3306       C  0.85309297  0.91296582  0.47906856    -0.21400
C3307       C  0.79578398  0.91159671  0.29406410    -0.21400
C3308       C  0.79617460  0.88457333  0.29424495    -0.21400
C3309       C  0.77365382  0.95801439  0.42840221    -0.22400
C3310       C  0.76336060  0.95378398  0.39345847    -0.22400
C3311       C  0.77604535  0.81267644  0.42663520    -0.22400
C3312       C  0.76606165  0.80733962  0.39142108    -0.22400
C3313       C  0.81676323  0.95555328  0.45723536    -0.17800
C3314       C  0.81455936  0.86064459  0.45792760    -0.17800
C3315       C  0.77941593  0.84275425  0.33900007    -0.17800
C3316       C  0.77849577  0.93621757  0.33892024    -0.17800
H3317       H  0.87055955  0.96126946  0.99132617     0.15100
H3318       H  0.86938963  0.90828768  0.99135391     0.15100
H3319       H  0.80072023  0.92658150  0.27143445     0.15100
H3320       H  0.80133785  0.87461149  0.27165155     0.15100
H3321       H  0.76463007  0.96435702  0.45088103     0.13400
H3322       H  0.74529363  0.95705563  0.38312992     0.13400
H3323       H  0.77243631  0.79559846  0.44628085     0.13400
H3324       H  0.75297056  0.78522480  0.37876057     0.13400
H3325       H  0.79190705  0.89668026  0.43490601     0.26700
H3326       H  0.77143304  0.88602454  0.37352157     0.26700
N3327       N  0.89603728  0.57422030  0.44270587    -0.36100
N3328       N  0.92518366  0.62698218  0.39980386    -0.56700
N3329       N  0.87178295  0.59856142  0.35277854    -0.36100
N3330       N  0.84174948  0.54417279  0.39772490    -0.56700
C3331       C  0.92536845  0.58809465  0.45414683     0.27500
C3332       C  0.88224248  0.54482392  0.45314415     0.27500
C3333       C  0.88915190  0.62592860  0.33661755     0.27500
C3334       C  0.84319270  0.58536891  0.33852636     0.27500
C3335       C  0.94154003  0.63850995  0.42991716     0.36100
C3336       C  0.93203929  0.65071698  0.37863087     0.36100
C3337       C  0.83157757  0.52991885  0.42961696     0.36100
C3338       C  0.81710311  0.54118480  0.37998200     0.36100
C3339       C  0.93074125  0.56701148  0.47086230    -0.21400
C3340       C  0.90339076  0.53955067  0.47021299    -0.21400
C3341       C  0.87152414  0.63082039  0.31253792    -0.21400
C3342       C  0.84260208  0.60576251  0.31408784    -0.21400
C3343       C  0.95782448  0.67012654  0.42880203    -0.22400
C3344       C  0.95242823  0.67790510  0.39546165    -0.22400
C3345       C  0.80078627  0.51962194  0.43305730    -0.22400
C3346       C  0.79127229  0.52503554  0.40077884    -0.22400
C3347       C  0.94511387  0.62007805  0.45483764    -0.17800
C3348       C  0.85011398  0.52561287  0.45454757    -0.17800
C3349       C  0.81786558  0.55575589  0.34732679    -0.17800
C3350       C  0.92004595  0.64760425  0.34434247    -0.17800
H3351       H  0.95108188  0.57339882  0.98526102     0.15100
H3352       H  0.89888168  0.52012696  0.98366026     0.15100
H3353       H  0.87839730  0.65101046  0.29664549     0.15100
H3354       H  0.82347813  0.60440894  0.29981213     0.15100
H3355       H  0.97361902  0.68568246  0.44862925     0.13400
H3356       H  0.96219060  0.70076253  0.38493456     0.13400
H3357       H  0.78634433  0.01549326  0.45937437     0.13400
H3358       H  0.76833234  0.51910652  0.39396061     0.13400
H3359       H  0.88458402  0.58536080  0.43448974     0.26700
H3360       H  0.88001727  0.58853443  0.37015391     0.26700
N3361       N  0.90240859  0.57491281  0.09901673    -0.36100
N3362       N  0.93437581  0.62851576  0.14475578    -0.56700
N3363       N  0.88002109  0.59695925  0.19012438    -0.36100
N3364       N  0.85039873  0.54220428  0.14533948    -0.56700
C3365       C  0.93118902  0.58972122  0.08585532     0.27500
C3366       C  0.88781214  0.54638411  0.08521450     0.27500
C3367       C  0.90163672  0.61916445  0.21081002     0.27500
C3368       C  0.86021641  0.57452413  0.21207002     0.27500
C3369       C  0.94449558  0.63898817  0.11156683     0.36100
C3370       C  0.93354193  0.65119544  0.16249203     0.36100
C3371       C  0.83881105  0.53161727  0.11262632     0.36100
C3372       C  0.82766513  0.54156688  0.16462517     0.36100
C3373       C  0.93559784  0.56973655  0.06485743    -0.21400
C3374       C  0.90806841  0.54230989  0.06435185    -0.21400
C3375       C  0.89644913  0.61017162  0.24614036    -0.21400
C3376       C  0.87000995  0.58197836  0.24709000    -0.21400
C3377       C  0.94864107  0.66788600  0.10759550    -0.22400
C3378       C  0.94281289  0.67620185  0.14060075    -0.22400
C3379       C  0.80906392  0.52566449  0.11044840    -0.22400
C3380       C  0.80138660  0.53070241  0.14414547    -0.22400
C3381       C  0.94971093  0.62196362  0.08571415    -0.17800
C3382       C  0.85554991  0.52723241  0.08576872    -0.17800
C3383       C  0.83159350  0.55059998  0.20055240    -0.17800
C3384       C  0.92341267  0.64820547  0.19793920    -0.17800
H3385       H  0.95577764  0.57509864  0.04944284     0.15100
H3386       H  0.90294387  0.52236828  0.04867956     0.15100
H3387       H  0.91012623  0.62269974  0.26876987     0.15100
H3388       H  0.85905882  0.56887060  0.27081272     0.15100
H3389       H  0.95498375  0.68136934  0.08343982     0.13400
H3390       H  0.94375282  0.69737192  0.14722192     0.13400
H3391       H  0.79634167  0.01988971  0.08624924     0.13400
H3392       H  0.77961047  0.52807056  0.15189136     0.13400
H3393       H  0.89156027  0.58548076  0.11085523     0.26700
H3394       H  0.87651087  0.59908539  0.16306347     0.26700
C3395       C  0.83971026  0.50791360  0.05388880     0.02800
C3396       C  0.82293645  0.97516881  0.05385838     0.02800
C3397       C  0.81223649  0.95974961  0.02124274    -0.17800
C3398       C  0.82010636  0.97463487  0.48895303     0.02800
C3399       C  0.83685192  0.50648547  0.48762952     0.02800
C3400       C  0.84475613  0.52305527  0.02098266    -0.17800
H3401       H  0.85795440  0.54780182  0.02077890     0.04800
H3402       H  0.79941281  0.93498475  0.02137112     0.04800
N3403       N  0.89908043  0.82820809  0.44259389    -0.36100
N3404       N  0.82778493  0.78741282  0.40884072    -0.56700
N3405       N  0.86849837  0.77271675  0.35678665    -0.36100
N3406       N  0.93157846  0.80911145  0.39748709    -0.57300
C3407       C  0.88426633  0.84159603  0.45618338     0.27500
C3408       C  0.92737742  0.84214985  0.45740462     0.27500
C3409       C  0.83933668  0.75533375  0.34450221     0.27500
C3410       C  0.88592636  0.76265505  0.34118526     0.27500
C3411       C  0.83817953  0.81648964  0.42039456     0.36100
C3412       C  0.82196945  0.78706484  0.37314020     0.36100
C3413       C  0.94180921  0.80822314  0.43047499     0.36100
C3414       C  0.92994083  0.78525895  0.38013048     0.36100
C3415       C  0.90370005  0.86552207  0.47832619    -0.21400
C3416       C  0.93117670  0.86599943  0.47893753    -0.21400
C3417       C  0.83806460  0.73264430  0.32245392    -0.21400
C3418       C  0.86746901  0.73760684  0.31990021    -0.21400
C3419       C  0.84261808  0.83496239  0.39122343    -0.22400
C3420       C  0.83127466  0.81627400  0.36167418    -0.22400
C3421       C  0.94504071  0.78304674  0.43448691    -0.22400
C3422       C  0.93830952  0.76876461  0.40182241    -0.22400
C3423       C  0.85237117  0.82850842  0.45389717    -0.17800
C3424       C  0.94647358  0.82940523  0.45706204    -0.17800
C3425       C  0.91802274  0.77622409  0.34609735    -0.17800
C3426       C  0.81598772  0.76298569  0.34904150    -0.17800
H3427       H  0.89847873  0.88111201  0.99151364     0.15100
H3428       H  0.95171939  0.88245267  0.99312963     0.15100
H3429       H  0.81839240  0.71451009  0.30891187     0.15100
H3430       H  0.87413198  0.72400238  0.30428996     0.15100
H3431       H  0.85357790  0.85958696  0.39132709     0.13400
H3432       H  0.83253492  0.82369237  0.33436004     0.13400
H3433       H  0.95031615  0.77517645  0.45878025     0.13400
H3434       H  0.93770957  0.74772120  0.39527773     0.13400
H3435       H  0.88824203  0.80718447  0.42952082     0.26700
H3436       H  0.87692607  0.79262804  0.37184524     0.26700
N3437       N  0.89858124  0.82417684  0.09825494    -0.36100
N3438       N  0.93143156  0.80391504  0.14535259    -0.56700
N3439       N  0.87767445  0.77985743  0.19011955    -0.36100
N3440       N  0.84710143  0.80394132  0.14399954    -0.56700
C3441       C  0.92798704  0.83986335  0.08742235     0.27500
C3442       C  0.88429688  0.83846960  0.08523508     0.27500
C3443       C  0.89873374  0.77867605  0.21122615     0.27500
C3444       C  0.85644908  0.78031212  0.21170667     0.27500
C3445       C  0.94224769  0.80457449  0.11227588     0.36100
C3446       C  0.93228181  0.78130896  0.16311056     0.36100
C3447       C  0.83524605  0.80343611  0.11150269     0.36100
C3448       C  0.82452454  0.78149011  0.16328720     0.36100
C3449       C  0.93295471  0.86543319  0.06862085    -0.21400
C3450       C  0.90519199  0.86448090  0.06716031    -0.21400
C3451       C  0.89125457  0.77914357  0.24662088    -0.21400
C3452       C  0.86445603  0.77999951  0.24706009    -0.21400
C3453       C  0.94845283  0.78117781  0.10827570    -0.22400
C3454       C  0.94331193  0.76709285  0.14125562    -0.22400
C3455       C  0.80541918  0.77949621  0.10941610    -0.22400
C3456       C  0.79805271  0.76629711  0.14292656    -0.22400
C3457       C  0.94709953  0.82708870  0.08702632    -0.17800
C3458       C  0.85211568  0.82502200  0.08480441    -0.17800
C3459       C  0.82825709  0.77640482  0.19943291    -0.17800
C3460       C  0.92223359  0.77378920  0.19857918    -0.17800
H3461       H  0.95396537  0.88197141  0.05567458     0.15100
H3462       H  0.90057586  0.88034697  0.05338320     0.15100
H3463       H  0.90368649  0.77853292  0.26955790     0.15100
H3464       H  0.85203002  0.77966628  0.27069722     0.15100
H3465       H  0.95612031  0.77515686  0.08425077     0.13400
H3466       H  0.94608752  0.74796494  0.14792252     0.13400
H3467       H  0.79081155  0.77199206  0.08608241     0.13400
H3468       H  0.77624595  0.74700013  0.15066980     0.13400
H3469       H  0.88764715  0.80197608  0.10810750     0.26700
H3470       H  0.87565478  0.77640993  0.16256135     0.26700
N3471       N  0.56468595  0.90651891  0.09969981    -0.36100
N3472       N  0.52927919  0.85727187  0.14914229    -0.56700
N3473       N  0.58437496  0.88727264  0.19460476    -0.36100
N3474       N  0.61778128  0.93820984  0.14553967    -0.56700
C3475       C  0.53590537  0.89251387  0.08657065     0.27500
C3476       C  0.57985344  0.93487510  0.08586949     0.27500
C3477       C  0.56167058  0.86853280  0.21720943     0.27500
C3478       C  0.60761296  0.90872209  0.21455795     0.27500
C3479       C  0.51908649  0.84459408  0.11655455     0.36100
C3480       C  0.52762450  0.83510455  0.17036212     0.36100
C3481       C  0.62908419  0.94850870  0.11249548     0.36100
C3482       C  0.64046596  0.93853969  0.16485946     0.36100
C3483       C  0.53207851  0.91263163  0.06550386    -0.21400
C3484       C  0.55991972  0.93956797  0.06520121    -0.21400
C3485       C  0.57018251  0.87885330  0.25195594    -0.21400
C3486       C  0.59903009  0.90454406  0.25009016    -0.21400
C3487       C  0.01449137  0.81708813  0.11541186    -0.22400
C3488       C  0.51651587  0.80818529  0.15101525    -0.22400
C3489       C  0.65876045  0.95407012  0.11024060    -0.22400
C3490       C  0.66640939  0.94879705  0.14399125    -0.22400
C3491       C  0.51624115  0.86065261  0.08768639    -0.17800
C3492       C  0.61214379  0.95301013  0.08553604    -0.17800
C3493       C  0.63709237  0.92957582  0.20108981    -0.17800
C3494       C  0.53655344  0.84004669  0.20668301    -0.17800
H3495       H  0.51190402  0.90777585  0.05042628     0.15100
H3496       H  0.56546264  0.95956200  0.04966970     0.15100
H3497       H  0.55737161  0.86867448  0.27614237     0.15100
H3498       H  0.61235268  0.91842891  0.27227122     0.15100
H3499       H  0.00846377  0.80224120  0.09236408     0.13400
H3500       H  0.01558382  0.78867542  0.15856902     0.13400
H3501       H  0.67329831  0.96121578  0.08683559     0.13400
H3502       H  0.68801662  0.95115148  0.15193185     0.13400
H3503       H  0.57487736  0.89538846  0.11160638     0.26700
H3504       H  0.58580496  0.88305946  0.16760864     0.26700
N3505       N  0.56402577  0.90573358  0.44296498    -0.36100
N3506       N  0.61665403  0.94131358  0.39672424    -0.56700
N3507       N  0.59131518  0.87945983  0.35622867    -0.36100
N3508       N  0.53631825  0.84906898  0.40020192    -0.56700
C3509       C  0.57720553  0.93467039  0.45560330     0.27500
C3510       C  0.53489183  0.89042456  0.45489999     0.27500
C3511       C  0.61783156  0.89783920  0.33874775     0.27500
C3512       C  0.57838364  0.85113907  0.34136995     0.27500
C3513       C  0.62664301  0.95044359  0.43035673     0.36100
C3514       C  0.63966367  0.94035407  0.38024128     0.36100
C3515       C  0.52230208  0.83963192  0.43229634     0.36100
C3516       C  0.53524681  0.82459925  0.38425415     0.36100
C3517       C  0.55583724  0.93832421  0.47455792    -0.21400
C3518       C  0.52896957  0.91036746  0.47391716    -0.21400
C3519       C  0.62289719  0.88106654  0.31349203    -0.21400
C3520       C  0.59833758  0.85168112  0.31524012    -0.21400
C3521       C  0.65482399  0.95307815  0.43581757    -0.22400
C3522       C  0.66371124  0.94762795  0.40328280    -0.22400
C3523       C  0.01212530  0.80961028  0.43624368    -0.22400
C3524       C  0.52047672  0.79942262  0.40628365    -0.22400
C3525       C  0.60925796  0.95476699  0.45600355    -0.17800
C3526       C  0.51697071  0.85818361  0.45623869    -0.17800
C3527       C  0.54947642  0.82512802  0.35136316    -0.17800
C3528       C  0.63760015  0.92921178  0.34597357    -0.17800
H3529       H  0.56062406  0.95879317  0.98672383     0.15100
H3530       H  0.50886217  0.90519461  0.98679624     0.15100
H3531       H  0.64262931  0.88890938  0.29629676     0.15100
H3532       H  0.59672908  0.83300423  0.29972592     0.15100
H3533       H  0.66705386  0.95743137  0.46085059     0.13400
H3534       H  0.68440383  0.94710438  0.39767698     0.13400
H3535       H  0.00185084  0.79606877  0.45990115     0.13400
H3536       H  0.01570361  0.77720452  0.40033072     0.13400
H3537       H  0.57594883  0.89561923  0.43313879     0.26700
H3538       H  0.58209055  0.88700713  0.37536114     0.26700
N3539       N  0.64407823  0.56986219  0.09898680    -0.36100
N3540       N  0.67131534  0.63263146  0.14064719    -0.56700
N3541       N  0.67509319  0.58589047  0.19719110    -0.36100
N3542       N  0.66193106  0.53706408  0.14745175    -0.56700
C3543       C  0.62898145  0.58266092  0.08468070     0.27500
C3544       C  0.63165325  0.54156380  0.08490711     0.27500
C3545       C  0.67902765  0.60910092  0.21801560     0.27500
C3546       C  0.67903766  0.56660072  0.21816646     0.27500
C3547       C  0.64583636  0.62658340  0.12202087     0.36100
C3548       C  0.66578580  0.63631915  0.17526881     0.36100
C3549       C  0.66577536  0.52854142  0.11464323     0.36100
C3550       C  0.68387529  0.53775635  0.16832124     0.36100
C3551       C  0.60562894  0.56197016  0.06279987    -0.21400
C3552       C  0.60727756  0.53577484  0.06299042    -0.21400
C3553       C  0.68334556  0.60366852  0.25325633    -0.21400
C3554       C  0.68287428  0.57656095  0.25344989    -0.21400
C3555       C  0.62304401  0.62255155  0.14574618    -0.22400
C3556       C  0.63597402  0.62982300  0.17923407    -0.22400
C3557       C  0.69076641  0.52464065  0.11405422    -0.22400
C3558       C  0.70177708  0.52946952  0.14856536    -0.22400
C3559       C  0.63905458  0.61380392  0.08742212    -0.17800
C3560       C  0.64609249  0.52417608  0.08614863    -0.17800
C3561       C  0.68692118  0.54557348  0.20487929    -0.17800
C3562       C  0.68340244  0.63661894  0.20440279    -0.17800
H3563       H  0.58972879  0.56582618  0.04772178     0.15100
H3564       H  0.59319099  0.51534596  0.04759193     0.15100
H3565       H  0.68818851  0.61829439  0.27628283     0.15100
H3566       H  0.68793396  0.56727741  0.27660761     0.15100
H3567       H  0.59912266  0.61375487  0.13960826     0.13400
H3568       H  0.62413881  0.62784537  0.20408765     0.13400
H3569       H  0.69605022  0.01382310  0.09033727     0.13400
H3570       H  0.71744189  0.02224583  0.15621901     0.13400
H3571       H  0.66510525  0.58181444  0.11205860     0.26700
H3572       H  0.67530148  0.58657521  0.16943223     0.26700
N3573       N  0.64935610  0.57211478  0.44275233    -0.36100
N3574       N  0.67785913  0.54525623  0.39966475    -0.56700
N3575       N  0.70788620  0.60339421  0.35932691    -0.36100
N3576       N  0.68366484  0.63641157  0.40926061    -0.56700
C3577       C  0.63538595  0.54295246  0.45437180     0.27500
C3578       C  0.63286820  0.58428666  0.45521075     0.27500
C3579       C  0.72262714  0.58965246  0.34500477     0.27500
C3580       C  0.72182157  0.63264316  0.34726687     0.27500
C3581       C  0.67369694  0.53129080  0.43174882     0.36100
C3582       C  0.70089152  0.54384031  0.38315231     0.36100
C3583       C  0.65635645  0.63135644  0.42225926     0.36100
C3584       C  0.68489106  0.64482192  0.37455545     0.36100
C3585       C  0.60873192  0.53610555  0.47235336    -0.21400
C3586       C  0.60725210  0.56240106  0.47305527    -0.21400
C3587       C  0.74699923  0.61100738  0.32464734    -0.21400
C3588       C  0.74672494  0.63795029  0.32640808    -0.21400
C3589       C  0.69543486  0.52293113  0.43644804    -0.22400
C3590       C  0.71175775  0.52970577  0.40505600    -0.22400
C3591       C  0.63914278  0.63288110  0.39454508    -0.22400
C3592       C  0.65765716  0.64298770  0.36494108    -0.22400
C3593       C  0.64975944  0.52539476  0.45588916    -0.17800
C3594       C  0.64266334  0.61552521  0.45415131    -0.17800
C3595       C  0.70950494  0.65240166  0.35059912    -0.17800
C3596       C  0.71539522  0.55880458  0.35104243    -0.17800
H3597       H  0.59287439  0.51460648  0.98544154     0.15100
H3598       H  0.58930862  0.56498395  0.98567858     0.15100
H3599       H  0.76435361  0.60830793  0.31116336     0.15100
H3600       H  0.76340933  0.65895085  0.31373871     0.15100
H3601       H  0.69633716  0.00820122  0.45645571     0.13400
H3602       H  0.72317184  0.01727714  0.39339583     0.13400
H3603       H  0.61517367  0.62614828  0.39528951     0.13400
H3604       H  0.65089474  0.64610290  0.33858972     0.13400
H3605       H  0.67149633  0.58455060  0.43260063     0.26700
H3606       H  0.68739668  0.59268121  0.37350569     0.26700
C3607       C  0.63804923  0.63036421  0.05427634     0.02800
C3608       C  0.62790509  0.65166391  0.05389956     0.02800
C3609       C  0.62326726  0.66176158  0.02089787    -0.17800
C3610       C  0.62751296  0.65101690  0.48793315     0.02800
C3611       C  0.63891745  0.63066586  0.48746438     0.02800
C3612       C  0.64524912  0.62205804  0.02077443    -0.17800
H3613       H  0.65476617  0.60719327  0.02080869     0.04800
H3614       H  0.61394958  0.67685500  0.02087783     0.04800
N3615       N  0.56542651  0.65637491  0.44311004    -0.36100
N3616       N  0.61969591  0.68625089  0.40395057    -0.56700
N3617       N  0.59113342  0.71192934  0.35809872    -0.36100
N3618       N  0.53490237  0.69155979  0.40740919    -0.56700
C3619       C  0.58065321  0.64315031  0.45659470     0.27500
C3620       C  0.53605711  0.63941677  0.45338980     0.27500
C3621       C  0.61866793  0.72276694  0.34196960     0.27500
C3622       C  0.57777355  0.72686535  0.34392773     0.27500
C3623       C  0.63118873  0.68031319  0.43318026     0.36100
C3624       C  0.64368650  0.70469530  0.38356816     0.36100
C3625       C  0.51359096  0.66305236  0.41845207     0.36100
C3626       C  0.52828072  0.69340985  0.37254563     0.36100
C3627       C  0.56027594  0.61674103  0.47458191    -0.21400
C3628       C  0.53200519  0.61457250  0.47288945    -0.21400
C3629       C  0.62317081  0.74499572  0.31763955    -0.21400
C3630       C  0.59794776  0.74831126  0.31956342    -0.21400
C3631       C  0.66289163  0.69608601  0.43208458    -0.22400
C3632       C  0.67083065  0.71087419  0.39974910    -0.22400
C3633       C  0.99729313  0.64676525  0.38898337    -0.22400
C3634       C  0.50434642  0.66558261  0.36104809    -0.22400
C3635       C  0.61294742  0.65698919  0.45713086    -0.17800
C3636       C  0.51490575  0.64938236  0.45067609    -0.17800
C3637       C  0.54647654  0.71794752  0.34895188    -0.17800
C3638       C  0.64105536  0.71500869  0.35009100    -0.17800
H3639       H  0.56333010  0.60091233  0.98938126     0.15100
H3640       H  0.50941059  0.59807558  0.98609275     0.15100
H3641       H  0.64322443  0.75842550  0.30126500     0.15100
H3642       H  0.59556339  0.76494071  0.30433874     0.15100
H3643       H  0.67841706  0.69509602  0.45113983     0.13400
H3644       H  0.69384505  0.72466857  0.38947606     0.13400
H3645       H  0.98148142  0.62239056  0.38846206     0.13400
H3646       H  0.99663241  0.65992168  0.33333510     0.13400
H3647       H  0.57498477  0.67844296  0.43337460     0.26700
H3648       H  0.58074331  0.69335462  0.37518477     0.26700
N3649       N  0.56816533  0.66088618  0.09563742    -0.36100
N3650       N  0.62061471  0.68445751  0.14173112    -0.56700
N3651       N  0.58907557  0.70196591  0.18976219    -0.36100
N3652       N  0.53479246  0.67749240  0.14249529    -0.56700
C3653       C  0.58220196  0.64583471  0.08464653     0.27500
C3654       C  0.53937632  0.64584314  0.08243670     0.27500
C3655       C  0.61085247  0.70259119  0.21104197     0.27500
C3656       C  0.56591939  0.69813590  0.21108904     0.27500
C3657       C  0.63255488  0.68015511  0.11158501     0.36100
C3658       C  0.64412647  0.70234677  0.16362697     0.36100
C3659       C  0.52365957  0.67853911  0.11011001     0.36100
C3660       C  0.53351627  0.69854236  0.16310106     0.36100
C3661       C  0.56160417  0.62001089  0.06560661    -0.21400
C3662       C  0.53446958  0.62014476  0.06401598    -0.21400
C3663       C  0.60101074  0.69808726  0.24619739    -0.21400
C3664       C  0.57265889  0.69542807  0.24636543    -0.21400
C3665       C  0.66424931  0.69581568  0.11396955    -0.22400
C3666       C  0.67160720  0.70967037  0.14733862    -0.22400
C3667       C  0.01531299  0.70031564  0.11031342    -0.22400
C3668       C  0.52159833  0.71334071  0.14373331    -0.22400
C3669       C  0.61428277  0.65851731  0.08523022    -0.17800
C3670       C  0.52011324  0.65827581  0.08230143    -0.17800
C3671       C  0.54233629  0.70284345  0.19929473    -0.17800
C3672       C  0.63989471  0.70895303  0.19917472    -0.17800
H3673       H  0.56626916  0.60374767  0.05268894     0.15100
H3674       H  0.51393527  0.60399268  0.04987446     0.15100
H3675       H  0.61299314  0.69711816  0.26940493     0.15100
H3676       H  0.55929435  0.69274426  0.27004239     0.15100
H3677       H  0.68015355  0.69572393  0.09471017     0.13400
H3678       H  0.69434835  0.72280886  0.15865524     0.13400
H3679       H  0.00749195  0.70747337  0.08748148     0.13400
H3680       H  0.01503894  0.72945863  0.15360405     0.13400
H3681       H  0.57915325  0.68308515  0.10579030     0.26700
H3682       H  0.59168630  0.70825887  0.16291271     0.26700
C3683       C  0.99816234  0.64910326  0.48390248     0.02800
C3684       C  0.96579119  0.63403528  0.48586627     0.02800
C3685       C  0.95118322  0.63050009  0.02092063    -0.17800
C3686       C  0.96780044  0.63683823  0.05280660     0.02800
C3687       C  0.00018799  0.65263555  0.05119870     0.02800
C3688       C  0.51418082  0.66008191  0.01634044    -0.17800
H3689       H  0.53897874  0.67175306  0.01504948     0.04800
H3690       H  0.92635466  0.61862875  0.02235355     0.04800
C3691       C  0.64377132  0.50553335  0.05423027     0.02800
C3692       C  0.62694150  0.97201276  0.05288671     0.02800
C3693       C  0.61928682  0.95689238  0.01971159    -0.17800
C3694       C  0.62444655  0.97332443  0.48857174     0.02800
C3695       C  0.64392356  0.50610718  0.48871360     0.02800
C3696       C  0.65369719  0.52096814  0.02130094    -0.17800
H3697       H  0.66672434  0.54571643  0.02144059     0.04800
H3698       H  0.60597066  0.93215131  0.01934930     0.04800
C3699       C  0.96516618  0.83231342  0.48928718     0.02800
C3700       C  0.99744785  0.84560640  0.48884579     0.02800
C3701       C  0.51317289  0.85064675  0.02223091    -0.17800
C3702       C  0.99858212  0.84739867  0.05483668     0.02800
C3703       C  0.96613553  0.83203201  0.05458598     0.02800
C3704       C  0.95065859  0.82446445  0.02167193    -0.17800
H3705       H  0.92584828  0.81328793  0.02158615     0.04800
H3706       H  0.53800986  0.86255160  0.02242252     0.04800
C3707       C  0.83715487  0.82965108  0.05267292     0.02800
C3708       C  0.82116226  0.84597152  0.05359216     0.02800
C3709       C  0.81105266  0.85155945  0.02117015    -0.17800
C3710       C  0.81928969  0.84534928  0.48882675     0.02800
C3711       C  0.83586207  0.82979186  0.48706079     0.02800
C3712       C  0.84303901  0.82079452  0.01896740    -0.17800
H3713       H  0.85607511  0.80923840  0.01828440     0.04800
H3714       H  0.79869776  0.86383410  0.02185878     0.04800
O3715       O  0.79036738  0.81952173  0.29062757    -0.79600
O3716       O  0.70342306  0.69208152  0.32414730    -0.79700
O3717       O  0.69052931  0.74179806  0.32333113    -0.79700
O3718       O  0.78817762  0.73650470  0.29461424    -0.79600
O3719       O  0.65702257  0.69919556  0.29959907    -0.79700
O3720       O  0.77385171  0.76521796  0.32157676    -0.79600
O3721       O  0.73379430  0.68079594  0.29624750    -0.79600
O3722       O  0.74269787  0.79650100  0.31223120    -0.79700
C3723       C  0.77063739  0.81883983  0.31212710     1.10100
C3724       C  0.71678577  0.67698845  0.32304259     1.09900
C3725       C  0.66367678  0.71926373  0.32289168     1.10100
C3726       C  0.79083348  0.75366355  0.32103799     1.10000
O3727       O  0.80389198  0.78056777  0.25226273    -0.79600
O3728       O  0.67512628  0.70085741  0.23062043    -0.79700
O3729       O  0.72345843  0.79406003  0.23819899    -0.79600
O3730       O  0.72294417  0.68654081  0.22073996    -0.79600
O3731       O  0.68397626  0.66220887  0.25716864    -0.79700
O3732       O  0.76540043  0.79491736  0.22636685    -0.79600
O3733       O  0.77763718  0.74081761  0.21801883    -0.79600
O3734       O  0.67212960  0.74040780  0.24697710    -0.79700
Co3735     Co  0.76682016  0.77888591  0.27440177     1.51500
Co3736     Co  0.69294019  0.70139807  0.27705261     1.51700
Co3737     Co  0.70957615  0.76490304  0.27857023     1.51600
Co3738     Co  0.75385813  0.71354010  0.25783275     1.51500
O3739       O  0.73157074  0.73880853  0.26426961    -1.41600
C3740       C  0.80203631  0.76550898  0.22433381     1.10000
C3741       C  0.66442178  0.71791265  0.22603878     1.10100
C3742       C  0.74726045  0.80417407  0.21979318     1.10000
C3743       C  0.69734709  0.66307093  0.22836882     1.10000
O3744       O  0.76849591  0.97068955  0.22864219    -0.79600
O3745       O  0.69015581  0.52261374  0.25869413    -0.79700
O3746       O  0.67121884  0.92908058  0.24575161    -0.79700
O3747       O  0.78213629  0.53942309  0.21815579    -0.79600
O3748       O  0.67733891  0.97208858  0.23131847    -0.79700
O3749       O  0.80581244  0.52387805  0.25344188    -0.79600
O3750       O  0.72826836  0.53899229  0.22052682    -0.79600
O3751       O  0.72398831  0.93071870  0.23610913    -0.79700
C3752       C  0.74900238  0.94393970  0.21983095     1.10100
C3753       C  0.70247407  0.53512385  0.22910804     1.09900
C3754       C  0.66366894  0.94418327  0.22629371     1.10100
C3755       C  0.80528499  0.53726689  0.22517847     1.10000
O3756       O  0.77411101  0.51066926  0.32187952    -0.79600
O3757       O  0.65719036  0.96767831  0.30119429    -0.79700
O3758       O  0.74185908  0.94577671  0.31091069    -0.79600
O3759       O  0.73745186  0.55520311  0.29509609    -0.79600
O3760       O  0.71396255  0.51352525  0.32603653    -0.79700
O3761       O  0.79099908  0.97305309  0.29419060    -0.79600
O3762       O  0.79054499  0.55343716  0.29373560    -0.79600
O3763       O  0.68707342  0.94999001  0.31928195    -0.79700
Co3764     Co  0.76792821  0.98916850  0.27547198     1.51500
Co3765     Co  0.69623832  0.98920537  0.27853657     1.51700
Co3766     Co  0.70953560  0.94578191  0.27613470     1.51600
Co3767     Co  0.75787406  0.54318224  0.25700673     1.51500
O3768       O  0.73454057  0.99513631  0.26038479    -1.41600
C3769       C  0.79181073  0.53932588  0.32089121     1.10000
C3770       C  0.66127146  0.94928828  0.32032257     1.10100
C3771       C  0.77011728  0.95220177  0.31291773     1.10000
C3772       C  0.72400146  0.54199658  0.32379939     1.10000
O3773       O  0.96480905  0.69005992  0.22737704    -0.79600
O3774       O  0.51246445  0.81409554  0.26192855    -0.79700
O3775       O  0.92601714  0.73475296  0.22943925    -0.79700
O3776       O  0.52755546  0.73799925  0.21891040    -0.79600
O3777       O  0.95870756  0.78164716  0.24332845    -0.79700
O3778       O  0.51663857  0.69946693  0.25350266    -0.79600
O3779       O  0.52626092  0.79095205  0.22269421    -0.79600
O3780       O  0.92053319  0.68030633  0.24253847    -0.79700
C3781       C  0.93679760  0.67463529  0.22270246     1.10100
C3782       C  0.52419466  0.81376885  0.23170056     1.09900
C3783       C  0.93703882  0.76270638  0.22402846     1.10100
C3784       C  0.52852276  0.71410453  0.22509657     1.10000
O3785       O  0.50159703  0.71340321  0.32242988    -0.79600
O3786       O  0.96423608  0.79676536  0.31233688    -0.79700
O3787       O  0.93812075  0.69557039  0.31591615    -0.79600
O3788       O  0.54453688  0.79866287  0.29599382    -0.79600
O3789       O  0.50439186  0.77916195  0.32948905    -0.79700
O3790       O  0.95642603  0.66630234  0.29685275    -0.79600
O3791       O  0.54388215  0.74443497  0.29561480    -0.79600
O3792       O  0.93055814  0.74712678  0.30640811    -0.79700
Co3793     Co  0.98035934  0.70584221  0.27617558     1.51500
Co3794     Co  0.98036492  0.77664446  0.28529901     1.51700
Co3795     Co  0.93592700  0.71820504  0.27211028     1.51600
Co3796     Co  0.53138883  0.76594043  0.25852284     1.51500
O3797       O  0.98603360  0.74500242  0.26212618    -1.41600
C3798       C  0.53015306  0.72665891  0.32183764     1.10000
C3799       C  0.93852845  0.77339173  0.32016885     1.10100
C3800       C  0.93868424  0.67055162  0.31734156     1.10000
C3801       C  0.53249998  0.79862304  0.32558013     1.10000
N3802       N  0.81536066  0.90741260  0.59914948    -0.36100
N3803       N  0.79125644  0.85323083  0.64429865    -0.56700
N3804       N  0.76038322  0.87985805  0.68583087    -0.36100
N3805       N  0.79234866  0.93817196  0.64451074    -0.56700
C3806       C  0.83042476  0.89336079  0.58759778     0.27500
C3807       C  0.83076087  0.93661585  0.58752690     0.27500
C3808       C  0.75439413  0.85537040  0.70612037     0.27500
C3809       C  0.75494586  0.89872251  0.70618717     0.27500
C3810       C  0.79408648  0.84316009  0.61182941     0.36100
C3811       C  0.76794440  0.82891734  0.66072874     0.36100
C3812       C  0.79492226  0.95068132  0.61190291     0.36100
C3813       C  0.76903240  0.93893019  0.66103204     0.36100
C3814       C  0.85653224  0.91429207  0.56939560    -0.21400
C3815       C  0.85674817  0.94165239  0.56936261    -0.21400
C3816       C  0.74410531  0.85843452  0.73939505    -0.21400
C3817       C  0.74438480  0.88553307  0.73937637    -0.21400
C3818       C  0.77150691  0.81303143  0.60705607    -0.22400
C3819       C  0.75572233  0.80352261  0.63882090    -0.22400
C3820       C  0.77208619  0.95762636  0.60713091    -0.22400
C3821       C  0.75647149  0.95145958  0.63903880    -0.22400
C3822       C  0.81734814  0.86115498  0.58717922    -0.17800
C3823       C  0.81808913  0.95590854  0.58710276    -0.17800
C3824       C  0.75773375  0.92666393  0.69491464    -0.17800
C3825       C  0.75662309  0.82983889  0.69464776    -0.17800
H3826       H  0.87284228  0.90984824  0.55612699     0.15100
H3827       H  0.87324885  0.96243830  0.55609527     0.15100
H3828       H  0.73745750  0.84330982  0.76206769     0.15100
H3829       H  0.73786772  0.89442555  0.76184043     0.15100
H3830       H  0.76663513  0.79956114  0.58294510     0.13400
H3831       H  0.73629207  0.78118301  0.64439916     0.13400
H3832       H  0.76701420  0.96588173  0.58301003     0.13400
H3833       H  0.73694057  0.95399884  0.64467734     0.13400
H3834       H  0.79286882  0.89619801  0.60841252     0.26700
H3835       H  0.76614131  0.88272906  0.65888183     0.26700
N3836       N  0.81381662  0.90712193  0.94549552    -0.36100
N3837       N  0.79958128  0.94106044  0.89679558    -0.56700
N3838       N  0.78103002  0.89015601  0.84789552    -0.36100
N3839       N  0.79487627  0.85743547  0.89825870    -0.56700
C3840       C  0.82915267  0.93605675  0.95786846     0.27500
C3841       C  0.82808679  0.89275024  0.95801103     0.27500
C3842       C  0.78626911  0.91421418  0.82769433     0.27500
C3843       C  0.78639006  0.87144292  0.82748554     0.27500
C3844       C  0.79705363  0.95162580  0.92868990     0.36100
C3845       C  0.77927986  0.94239546  0.87517572     0.36100
C3846       C  0.79481964  0.84399860  0.92902610     0.36100
C3847       C  0.77810419  0.83527049  0.87472387     0.36100
C3848       C  0.85429018  0.94064397  0.97748184    -0.21400
C3849       C  0.85364738  0.91313925  0.97751443    -0.21400
C3850       C  0.79634685  0.91159920  0.79420274    -0.21400
C3851       C  0.79642930  0.88437195  0.79405634    -0.21400
C3852       C  0.77370130  0.95812441  0.92819090    -0.22400
C3853       C  0.76313973  0.95353619  0.89333419    -0.22400
C3854       C  0.77667138  0.81258334  0.92587077    -0.22400
C3855       C  0.76632195  0.80693615  0.89086724    -0.22400
C3856       C  0.81696090  0.95557930  0.95664837    -0.17800
C3857       C  0.81505241  0.86073067  0.95676297    -0.17800
C3858       C  0.77857717  0.84179329  0.83826119    -0.17800
C3859       C  0.77823568  0.93567335  0.83892091    -0.17800
H3860       H  0.86992716  0.96105372  0.49296848     0.15100
H3861       H  0.86857620  0.90798429  0.49330867     0.15100
H3862       H  0.80198781  0.92705249  0.77191174     0.15100
H3863       H  0.80214609  0.87477000  0.77156425     0.15100
H3864       H  0.76504639  0.96498955  0.95056069     0.13400
H3865       H  0.74528235  0.95711237  0.88295454     0.13400
H3866       H  0.77328440  0.79566503  0.94563494     0.13400
H3867       H  0.75315180  0.78469720  0.87852944     0.13400
H3868       H  0.79185595  0.89642704  0.93446136     0.26700
H3869       H  0.77014744  0.88479613  0.87275440     0.26700
N3870       N  0.89509662  0.57551330  0.94409019    -0.36100
N3871       N  0.92296110  0.62928395  0.90254591    -0.56700
N3872       N  0.87119789  0.59942440  0.85360838    -0.36100
N3873       N  0.84153787  0.54418128  0.89769643    -0.56700
C3874       C  0.92437004  0.58973995  0.95580672     0.27500
C3875       C  0.88171079  0.54601720  0.95411200     0.27500
C3876       C  0.88778278  0.62725028  0.83817763     0.27500
C3877       C  0.84280553  0.58555457  0.83871211     0.27500
C3878       C  0.94006312  0.64047969  0.93226298     0.36100
C3879       C  0.93014840  0.65314256  0.88133819     0.36100
C3880       C  0.83127201  0.53046145  0.92983861     0.36100
C3881       C  0.81698099  0.54142545  0.88001320     0.36100
C3882       C  0.93004808  0.56880484  0.97241213    -0.21400
C3883       C  0.90299758  0.54109002  0.97137180    -0.21400
C3884       C  0.87002554  0.63143615  0.81361972    -0.21400
C3885       C  0.84166890  0.60576856  0.81448658    -0.21400
C3886       C  0.95711379  0.67207674  0.93094115    -0.22400
C3887       C  0.95149397  0.68008817  0.89783497    -0.22400
C3888       C  0.80066068  0.52087683  0.93349142    -0.22400
C3889       C  0.79125153  0.52619732  0.90113414    -0.22400
C3890       C  0.94397655  0.62178259  0.95658525    -0.17800
C3891       C  0.84965065  0.52629208  0.95500125    -0.17800
C3892       C  0.81782023  0.55575619  0.84724650    -0.17800
C3893       C  0.91768000  0.65043227  0.84727881    -0.17800
H3894       H  0.95173152  0.57138044  0.48363330     0.15100
H3895       H  0.89899755  0.51859174  0.48276885     0.15100
H3896       H  0.87625173  0.65177279  0.79828066     0.15100
H3897       H  0.82239876  0.60410345  0.80024588     0.15100
H3898       H  0.97368706  0.68740804  0.95031175     0.13400
H3899       H  0.96186822  0.70295506  0.88715931     0.13400
H3900       H  0.78886820  0.01615258  0.96013540     0.13400
H3901       H  0.76853890  0.52102719  0.89449636     0.13400
H3902       H  0.88331340  0.58628856  0.93579479     0.26700
H3903       H  0.87966251  0.58980944  0.87123217     0.26700
N3904       N  0.90226354  0.57358547  0.59826990    -0.36100
N3905       N  0.93398348  0.62741086  0.64378129    -0.56700
N3906       N  0.88044558  0.59590164  0.69008145    -0.36100
N3907       N  0.85081386  0.54063120  0.64548454    -0.56700
C3908       C  0.93091951  0.58868077  0.58472930     0.27500
C3909       C  0.88795974  0.54492066  0.58484336     0.27500
C3910       C  0.90172316  0.61845360  0.71076734     0.27500
C3911       C  0.86037705  0.57375606  0.71210052     0.27500
C3912       C  0.94385479  0.63788857  0.61046859     0.36100
C3913       C  0.93344544  0.65012879  0.66187468     0.36100
C3914       C  0.83899183  0.52935717  0.61297387     0.36100
C3915       C  0.82799150  0.53984710  0.66483206     0.36100
C3916       C  0.93555465  0.56880016  0.56381848    -0.21400
C3917       C  0.90829152  0.54111844  0.56376727    -0.21400
C3918       C  0.89590918  0.61001994  0.74628915    -0.21400
C3919       C  0.86956086  0.58180641  0.74722744    -0.21400
C3920       C  0.94798445  0.66680499  0.60676453    -0.22400
C3921       C  0.94256798  0.67514619  0.64002722    -0.22400
C3922       C  0.80904448  0.52275822  0.61107110    -0.22400
C3923       C  0.80146718  0.52805467  0.64466051    -0.22400
C3924       C  0.94918244  0.62095547  0.58443946    -0.17800
C3925       C  0.85574443  0.52536740  0.58572285    -0.17800
C3926       C  0.83188478  0.54966005  0.70052212    -0.17800
C3927       C  0.92383130  0.64728062  0.69764551    -0.17800
H3928       H  0.95569339  0.57435358  0.54820264     0.15100
H3929       H  0.90334914  0.52115292  0.54824349     0.15100
H3930       H  0.90893491  0.62293168  0.76912388     0.15100
H3931       H  0.85819904  0.56911739  0.77103664     0.15100
H3932       H  0.95420448  0.68035496  0.58266719     0.13400
H3933       H  0.94374732  0.69638763  0.64688944     0.13400
H3934       H  0.79417486  0.01716152  0.58852348     0.13400
H3935       H  0.77957396  0.52509801  0.65247935     0.13400
H3936       H  0.89122139  0.58393401  0.61011420     0.26700
H3937       H  0.87726796  0.59756034  0.66283580     0.26700
C3938       C  0.83984937  0.50640004  0.55351227     0.02800
C3939       C  0.82296184  0.97510878  0.55453127     0.02800
C3940       C  0.81239744  0.95946455  0.52204263    -0.17800
C3941       C  0.82084690  0.97495826  0.98824288     0.02800
C3942       C  0.83622286  0.50731216  0.98810822     0.02800
C3943       C  0.84549589  0.52190816  0.52070561    -0.17800
H3944       H  0.85906654  0.54663668  0.52075770     0.04800
H3945       H  0.80043853  0.93471378  0.52230026     0.04800
N3946       N  0.89951165  0.82826197  0.94252454    -0.36100
N3947       N  0.82710052  0.78673968  0.90881156    -0.56700
N3948       N  0.86750799  0.77097936  0.85812602    -0.36100
N3949       N  0.93109910  0.80881162  0.89797609    -0.57300
C3950       C  0.88463979  0.84181973  0.95540544     0.27500
C3951       C  0.92798136  0.84276186  0.95692029     0.27500
C3952       C  0.83856421  0.75380658  0.84514605     0.27500
C3953       C  0.88533960  0.76165784  0.84205731     0.27500
C3954       C  0.83856165  0.81620791  0.91955726     0.36100
C3955       C  0.82136903  0.78595976  0.87300275     0.36100
C3956       C  0.94307799  0.80922700  0.93027555     0.36100
C3957       C  0.92971877  0.78508462  0.88073109     0.36100
C3958       C  0.90409467  0.86621475  0.97697597    -0.21400
C3959       C  0.93172550  0.86696169  0.97773016    -0.21400
C3960       C  0.83781113  0.73174253  0.82235667    -0.21400
C3961       C  0.86733972  0.73712883  0.81985264    -0.21400
C3962       C  0.84350984  0.83432662  0.88988032    -0.22400
C3963       C  0.83165513  0.81518120  0.86076064    -0.22400
C3964       C  0.94820974  0.78519159  0.93382839    -0.22400
C3965       C  0.94071320  0.77029931  0.90152406    -0.22400
C3966       C  0.85270663  0.82851731  0.95305212    -0.17800
C3967       C  0.94748662  0.83044761  0.95671266    -0.17800
C3968       C  0.91747074  0.77577623  0.84688587    -0.17800
C3969       C  0.81518856  0.76148744  0.84941970    -0.17800
H3970       H  0.89811433  0.88021529  0.49337291     0.15100
H3971       H  0.95106285  0.88100716  0.49476677     0.15100
H3972       H  0.81849719  0.71381126  0.80812948     0.15100
H3973       H  0.87433160  0.72414901  0.80355553     0.15100
H3974       H  0.85511281  0.85898773  0.88937783     0.13400
H3975       H  0.83315962  0.82219800  0.83321383     0.13400
H3976       H  0.95502851  0.77828583  0.95771875     0.13400
H3977       H  0.94137032  0.74993083  0.89474811     0.13400
H3978       H  0.88858976  0.80686211  0.93035536     0.26700
H3979       H  0.87562506  0.79049917  0.87384651     0.26700
N3980       N  0.89840594  0.82352372  0.59894355    -0.36100
N3981       N  0.93119905  0.80295789  0.64585283    -0.56700
N3982       N  0.87850521  0.78046204  0.69109167    -0.36100
N3983       N  0.84764527  0.80437410  0.64494915    -0.56700
C3984       C  0.92781572  0.83892053  0.58815324     0.27500
C3985       C  0.88450753  0.83827816  0.58616250     0.27500
C3986       C  0.89962301  0.77944277  0.71217494     0.27500
C3987       C  0.85765104  0.78149581  0.71264513     0.27500
C3988       C  0.94165958  0.80324127  0.61272373     0.36100
C3989       C  0.93204239  0.78045337  0.66381159     0.36100
C3990       C  0.83549289  0.80401313  0.61270377     0.36100
C3991       C  0.82521835  0.78197083  0.66437128     0.36100
C3992       C  0.93319740  0.86478528  0.56971857    -0.21400
C3993       C  0.90567183  0.86431822  0.56839464    -0.21400
C3994       C  0.89267089  0.78083280  0.74759484    -0.21400
C3995       C  0.86601462  0.78193355  0.74803472    -0.21400
C3996       C  0.94774566  0.77974119  0.60891157    -0.22400
C3997       C  0.94280247  0.76593257  0.64206427    -0.22400
C3998       C  0.80552448  0.78033316  0.61097822    -0.22400
C3999       C  0.79847369  0.76704017  0.64442362    -0.22400
C4000       C  0.94651404  0.82569398  0.58741937    -0.17800
C4001       C  0.85240084  0.82528521  0.58577376    -0.17800
C4002       C  0.82926289  0.77686420  0.70036039    -0.17800
C4003       C  0.92238698  0.77354865  0.69942874    -0.17800
H4004       H  0.95433192  0.88124477  0.55695360     0.15100
H4005       H  0.90139644  0.88055795  0.55496807     0.15100
H4006       H  0.90516648  0.78046560  0.77057818     0.15100
H4007       H  0.85381691  0.78203770  0.77170648     0.15100
H4008       H  0.95530323  0.77353914  0.58493546     0.13400
H4009       H  0.94561862  0.74686702  0.64894471     0.13400
H4010       H  0.79065880  0.77294867  0.58787644     0.13400
H4011       H  0.77665187  0.74787443  0.65237097     0.13400
H4012       H  0.88718734  0.80121405  0.60859977     0.26700
H4013       H  0.87593296  0.77616306  0.66364733     0.26700
N4014       N  0.56475418  0.90614881  0.60003247    -0.36100
N4015       N  0.53015456  0.85643964  0.64852544    -0.56700
N4016       N  0.58499192  0.88680424  0.69473683    -0.36100
N4017       N  0.61739963  0.93830000  0.64659131    -0.56700
C4018       C  0.53604877  0.89165963  0.58665014     0.27500
C4019       C  0.57914591  0.93489213  0.58736003     0.27500
C4020       C  0.56222428  0.86785344  0.71714879     0.27500
C4021       C  0.60812899  0.90815456  0.71488734     0.27500
C4022       C  0.52029612  0.84376188  0.61587335     0.36100
C4023       C  0.52875526  0.83446968  0.66982313     0.36100
C4024       C  0.62875474  0.94991644  0.61397350     0.36100
C4025       C  0.64058892  0.93950912  0.66573642     0.36100
C4026       C  0.53145896  0.91175649  0.56655485    -0.21400
C4027       C  0.55874512  0.93925966  0.56718928    -0.21400
C4028       C  0.57066876  0.87787656  0.75200981    -0.21400
C4029       C  0.59950054  0.90359405  0.75038692    -0.21400
C4030       C  0.01375523  0.81582196  0.61615125    -0.22400
C4031       C  0.51828899  0.80764636  0.65037693    -0.22400
C4032       C  0.65902014  0.95733680  0.61184345    -0.22400
C4033       C  0.66693985  0.95185130  0.64526736    -0.22400
C4034       C  0.51699281  0.85971006  0.58722035    -0.17800
C4035       C  0.61135553  0.95382326  0.58714360    -0.17800
C4036       C  0.63743323  0.92968265  0.70155401    -0.17800
C4037       C  0.53701955  0.83949734  0.70636905    -0.17800
H4038       H  0.51116454  0.90664774  0.55159808     0.15100
H4039       H  0.56368538  0.95949767  0.55252236     0.15100
H4040       H  0.55780411  0.86754286  0.77611714     0.15100
H4041       H  0.61268059  0.91740812  0.77266642     0.15100
H4042       H  0.00774741  0.80082924  0.59324597     0.13400
H4043       H  0.01487929  0.78767326  0.65951451     0.13400
H4044       H  0.67370710  0.96562680  0.58861677     0.13400
H4045       H  0.68905084  0.95543131  0.65319417     0.13400
H4046       H  0.57555756  0.89532073  0.61136639     0.26700
H4047       H  0.58647243  0.88293591  0.66757013     0.26700
N4048       N  0.56455410  0.90512921  0.94249738    -0.36100
N4049       N  0.61740542  0.94063461  0.89591290    -0.56700
N4050       N  0.59169036  0.87852571  0.85612020    -0.36100
N4051       N  0.53652197  0.84846544  0.90040665    -0.56700
C4052       C  0.57786526  0.93425954  0.95443108     0.27500
C4053       C  0.53545303  0.89014292  0.95455315     0.27500
C4054       C  0.61818109  0.89673512  0.83845351     0.27500
C4055       C  0.57864421  0.85010096  0.84162787     0.27500
C4056       C  0.62721186  0.94935467  0.92961366     0.36100
C4057       C  0.64012699  0.93903916  0.87973761     0.36100
C4058       C  0.52253837  0.83918595  0.93257402     0.36100
C4059       C  0.53536818  0.82392038  0.88455064     0.36100
C4060       C  0.55661373  0.93838350  0.97294910    -0.21400
C4061       C  0.52967616  0.91048317  0.97286628    -0.21400
C4062       C  0.62316220  0.87971566  0.81347592    -0.21400
C4063       C  0.59855142  0.85033989  0.81562177    -0.21400
C4064       C  0.65506040  0.95125994  0.93542601    -0.22400
C4065       C  0.66380492  0.94542443  0.90301881    -0.22400
C4066       C  0.01525884  0.81106228  0.93845239    -0.22400
C4067       C  0.52060097  0.79884316  0.90675811    -0.22400
C4068       C  0.60991658  0.95411857  0.95483460    -0.17800
C4069       C  0.51737063  0.85794373  0.95640784    -0.17800
C4070       C  0.54956309  0.82432277  0.85161443    -0.17800
C4071       C  0.63791980  0.92817141  0.84542652    -0.17800
H4072       H  0.55972878  0.95843867  0.48896220     0.15100
H4073       H  0.50811818  0.90472791  0.48799637     0.15100
H4074       H  0.64284116  0.88740998  0.79620947     0.15100
H4075       H  0.59680048  0.83144949  0.80041890     0.15100
H4076       H  0.66719945  0.95553085  0.96052335     0.13400
H4077       H  0.68417905  0.94426575  0.89757779     0.13400
H4078       H  0.00612266  0.79823897  0.96284554     0.13400
H4079       H  0.01958501  0.77846596  0.90359878     0.13400
H4080       H  0.57641332  0.89477509  0.93306984     0.26700
H4081       H  0.58242629  0.88625014  0.87511874     0.26700
N4082       N  0.64430214  0.57096551  0.59925174    -0.36100
N4083       N  0.67096786  0.63239653  0.64166611    -0.56700
N4084       N  0.67689879  0.58814416  0.69731442    -0.36100
N4085       N  0.66280738  0.53876755  0.64741677    -0.56700
C4086       C  0.62922008  0.58383277  0.58504761     0.27500
C4087       C  0.63179646  0.54266439  0.58510740     0.27500
C4088       C  0.68098549  0.61141001  0.71834591     0.27500
C4089       C  0.68188965  0.56929955  0.71796047     0.27500
C4090       C  0.64643214  0.62801606  0.62221657     0.36100
C4091       C  0.66555654  0.63750539  0.67580067     0.36100
C4092       C  0.66597015  0.52955335  0.61470200     0.36100
C4093       C  0.68465174  0.53904687  0.66807593     0.36100
C4094       C  0.60587654  0.56321232  0.56308114    -0.21400
C4095       C  0.60747085  0.53698569  0.56315546    -0.21400
C4096       C  0.68696752  0.60670538  0.75310471    -0.21400
C4097       C  0.68713513  0.57989343  0.75299915    -0.21400
C4098       C  0.62403647  0.62608901  0.64516417    -0.22400
C4099       C  0.63666130  0.63357309  0.67876501    -0.22400
C4100       C  0.69043894  0.52483695  0.61396547    -0.22400
C4101       C  0.70175286  0.52977435  0.64830659    -0.22400
C4102       C  0.63941732  0.61502595  0.58772791    -0.17800
C4103       C  0.64611111  0.52515423  0.58640102    -0.17800
C4104       C  0.68836831  0.54726346  0.70451395    -0.17800
C4105       C  0.68236823  0.63795979  0.70581991    -0.17800
H4106       H  0.59008635  0.56717210  0.54791424     0.15100
H4107       H  0.59341387  0.51664388  0.54760734     0.15100
H4108       H  0.69167410  0.62140199  0.77601316     0.15100
H4109       H  0.69289107  0.57080244  0.77575441     0.15100
H4110       H  0.60046080  0.61856405  0.63855352     0.13400
H4111       H  0.62499042  0.63327317  0.70315762     0.13400
H4112       H  0.69921712  0.01809688  0.58956946     0.13400
H4113       H  0.72188326  0.02766018  0.65503684     0.13400
H4114       H  0.66527767  0.58281520  0.61212917     0.26700
H4115       H  0.67524629  0.58794675  0.66994213     0.26700
N4116       N  0.64888431  0.57191580  0.94249463    -0.36100
N4117       N  0.67784738  0.54594063  0.89967910    -0.56700
N4118       N  0.70680297  0.60374550  0.85843180    -0.36100
N4119       N  0.68312171  0.63692920  0.90886620    -0.56700
C4120       C  0.63517456  0.54283851  0.95443172     0.27500
C4121       C  0.63224681  0.58394991  0.95481237     0.27500
C4122       C  0.72179752  0.59004227  0.84440762     0.27500
C4123       C  0.72096243  0.63321916  0.84672840     0.27500
C4124       C  0.67335622  0.53120455  0.93129370     0.36100
C4125       C  0.70028112  0.54397392  0.88245292     0.36100
C4126       C  0.65551064  0.63111755  0.92172945     0.36100
C4127       C  0.68463103  0.64608756  0.87438726     0.36100
C4128       C  0.60855327  0.53589668  0.97253339    -0.21400
C4129       C  0.60682194  0.56205486  0.97296593    -0.21400
C4130       C  0.74640910  0.61157300  0.82452866    -0.21400
C4131       C  0.74613401  0.63854539  0.82635147    -0.21400
C4132       C  0.69435925  0.52180026  0.93504416    -0.22400
C4133       C  0.71031173  0.52852339  0.90339846    -0.22400
C4134       C  0.63835643  0.63263647  0.89391494    -0.22400
C4135       C  0.65725889  0.64372930  0.86459234    -0.22400
C4136       C  0.64956000  0.52528038  0.95567550    -0.17800
C4137       C  0.64190131  0.61516165  0.95370782    -0.17800
C4138       C  0.70916655  0.65361666  0.85039786    -0.17800
C4139       C  0.71479684  0.55914307  0.85038164    -0.17800
H4140       H  0.59293435  0.51482003  0.48517343     0.15100
H4141       H  0.58978105  0.56540395  0.48575013     0.15100
H4142       H  0.76394651  0.60895251  0.81139153     0.15100
H4143       H  0.76307475  0.65967640  0.81413391     0.15100
H4144       H  0.69494931  0.00707168  0.95450906     0.13400
H4145       H  0.72381857  0.01824560  0.89263737     0.13400
H4146       H  0.61425612  0.62540675  0.89444531     0.13400
H4147       H  0.65069110  0.64685029  0.83818976     0.13400
H4148       H  0.67095837  0.58449895  0.93213917     0.26700
H4149       H  0.68619536  0.59293294  0.87238193     0.26700
C4150       C  0.63899251  0.63169864  0.55438498     0.02800
C4151       C  0.63004477  0.65396288  0.55358331     0.02800
C4152       C  0.62592324  0.66409818  0.52035162    -0.17800
C4153       C  0.62578812  0.64968728  0.98813889     0.02800
C4154       C  0.63806310  0.63004856  0.98725654     0.02800
C4155       C  0.64584221  0.62273865  0.52110304    -0.17800
H4156       H  0.65484046  0.60743555  0.52141701     0.04800
H4157       H  0.61732514  0.67979185  0.51993904     0.04800
N4158       N  0.56428335  0.65598172  0.94298359    -0.36100
N4159       N  0.61783557  0.68382957  0.90332100    -0.56700
N4160       N  0.59056137  0.71132330  0.85785231    -0.36100
N4161       N  0.53463942  0.69246096  0.90733779    -0.56700
C4162       C  0.57909208  0.64243374  0.95676077     0.27500
C4163       C  0.53494466  0.63966144  0.95342493     0.27500
C4164       C  0.61772671  0.72098605  0.84138306     0.27500
C4165       C  0.57794760  0.72700340  0.84388651     0.27500
C4166       C  0.62953552  0.67896135  0.93309427     0.36100
C4167       C  0.64158908  0.70206062  0.88262535     0.36100
C4168       C  0.51327381  0.66399895  0.91843918     0.36100
C4169       C  0.52831569  0.69408195  0.87230520     0.36100
C4170       C  0.55841320  0.61637538  0.97508553    -0.21400
C4171       C  0.53042902  0.61483153  0.97331571    -0.21400
C4172       C  0.62317203  0.74383796  0.81746441    -0.21400
C4173       C  0.59850498  0.74820168  0.81956494    -0.21400
C4174       C  0.66125225  0.69536949  0.93210321    -0.22400
C4175       C  0.66895856  0.70947241  0.89924697    -0.22400
C4176       C  0.99503993  0.64780577  0.89137602    -0.22400
C4177       C  0.50455377  0.66616399  0.86077537    -0.22400
C4178       C  0.61135378  0.65587908  0.95733182    -0.17800
C4179       C  0.51449798  0.65047315  0.95081452    -0.17800
C4180       C  0.54670985  0.71846474  0.84866356    -0.17800
C4181       C  0.63822187  0.71049237  0.84835738    -0.17800
H4182       H  0.56553937  0.60136428  0.48849888     0.15100
H4183       H  0.51105991  0.59732267  0.48535182     0.15100
H4184       H  0.64319077  0.75655955  0.80081918     0.15100
H4185       H  0.59642495  0.76496513  0.80419687     0.15100
H4186       H  0.67694175  0.69521225  0.95159007     0.13400
H4187       H  0.69189641  0.72343873  0.88882248     0.13400
H4188       H  0.97781409  0.62380173  0.89152731     0.13400
H4189       H  0.99377902  0.66055489  0.83584044     0.13400
H4190       H  0.57420609  0.67809479  0.93303444     0.26700
H4191       H  0.57958224  0.69251485  0.87469521     0.26700
N4192       N  0.56901491  0.66184767  0.59492343    -0.36100
N4193       N  0.62170903  0.68690817  0.64083510    -0.56700
N4194       N  0.58887091  0.70243520  0.68927509    -0.36100
N4195       N  0.53445945  0.67670589  0.64239276    -0.56700
C4196       C  0.58389044  0.64771636  0.58355442     0.27500
C4197       C  0.54013761  0.64591309  0.58204947     0.27500
C4198       C  0.61103125  0.70375298  0.71045314     0.27500
C4199       C  0.56561763  0.69810907  0.71073553     0.27500
C4200       C  0.63397411  0.68308228  0.61064950     0.36100
C4201       C  0.64498621  0.70506036  0.66291839     0.36100
C4202       C  0.52269580  0.67707753  0.61018489     0.36100
C4203       C  0.53229498  0.69723218  0.66305806     0.36100
C4204       C  0.56380574  0.62164534  0.56453281    -0.21400
C4205       C  0.53609273  0.62062195  0.56340102    -0.21400
C4206       C  0.60130619  0.69903949  0.74564465    -0.21400
C4207       C  0.57267122  0.69573769  0.74598995    -0.21400
C4208       C  0.66565896  0.69937279  0.61317628    -0.22400
C4209       C  0.67265860  0.71315367  0.64663013    -0.22400
C4210       C  0.01446640  0.69864577  0.60968357    -0.22400
C4211       C  0.51906065  0.71089924  0.64394840    -0.22400
C4212       C  0.61608365  0.66111350  0.58434057    -0.17800
C4213       C  0.51990859  0.65724109  0.58224115    -0.17800
C4214       C  0.54160800  0.70216910  0.69907231    -0.17800
C4215       C  0.64041453  0.71125387  0.69857056    -0.17800
H4216       H  0.56909501  0.60587742  0.55148281     0.15100
H4217       H  0.51569603  0.60396794  0.54942584     0.15100
H4218       H  0.61369751  0.69847814  0.76870739     0.15100
H4219       H  0.55930512  0.69288089  0.76972528     0.15100
H4220       H  0.68183070  0.69980290  0.59392951     0.13400
H4221       H  0.69530611  0.72667084  0.65805247     0.13400
H4222       H  0.00655486  0.70561889  0.58677595     0.13400
H4223       H  0.01496443  0.72858049  0.65250793     0.13400
H4224       H  0.57933982  0.68395159  0.60524597     0.26700
H4225       H  0.59125341  0.70875886  0.66245036     0.26700
C4226       C  0.99756960  0.64992224  0.98501859     0.02800
C4227       C  0.96520446  0.63549375  0.98726750     0.02800
C4228       C  0.95138326  0.62903689  0.51932510    -0.17800
C4229       C  0.96766196  0.63578829  0.55157346     0.02800
C4230       C  0.00011711  0.65143785  0.55028759     0.02800
C4231       C  0.51410793  0.65851777  0.51624688    -0.17800
H4232       H  0.53890779  0.67013722  0.51509388     0.04800
H4233       H  0.92653608  0.61692308  0.52035055     0.04800
C4234       C  0.64364002  0.50634624  0.55461684     0.02800
C4235       C  0.62589693  0.97267192  0.55434999     0.02800
C4236       C  0.61778293  0.95749776  0.52119564    -0.17800
C4237       C  0.62507080  0.97272954  0.98717537     0.02800
C4238       C  0.64367467  0.50566998  0.98826318     0.02800
C4239       C  0.65362955  0.52162621  0.52162834    -0.17800
H4240       H  0.66651002  0.54637768  0.52157416     0.04800
H4241       H  0.60376719  0.93280031  0.52087739     0.04800
C4242       C  0.96624144  0.83374398  0.98902121     0.02800
C4243       C  0.99852318  0.84697122  0.98878029     0.02800
C4244       C  0.51318026  0.84986732  0.52173090    -0.17800
C4245       C  0.99775577  0.84576471  0.55497887     0.02800
C4246       C  0.96531543  0.83042630  0.55486282     0.02800
C4247       C  0.94969107  0.82295662  0.52202082    -0.17800
H4248       H  0.92489026  0.81190217  0.52207894     0.04800
H4249       H  0.53800422  0.86143829  0.52161515     0.04800
C4250       C  0.83751991  0.83001693  0.55360512     0.02800
C4251       C  0.82178299  0.84654938  0.55452809     0.02800
C4252       C  0.81116574  0.85176839  0.52230333    -0.17800
C4253       C  0.81962890  0.84544934  0.98777570     0.02800
C4254       C  0.83609007  0.82978761  0.98611811     0.02800
C4255       C  0.84303469  0.82089841  0.51988116    -0.17800
H4256       H  0.85596999  0.80924086  0.51911468     0.04800
H4257       H  0.79881374  0.86404478  0.52316094     0.04800
O4258       O  0.78959988  0.81859431  0.78987382    -0.79600
O4259       O  0.70819459  0.69786728  0.82541087    -0.79700
O4260       O  0.68683289  0.73708130  0.82022151    -0.79700
O4261       O  0.78782550  0.73483373  0.79497957    -0.79600
O4262       O  0.65397009  0.69051821  0.80054291    -0.79700
O4263       O  0.77354213  0.76406215  0.82082859    -0.79600
O4264       O  0.73216072  0.67992311  0.79512444    -0.79600
O4265       O  0.74258354  0.79383148  0.81317332    -0.79700
C4266       C  0.76987756  0.81748561  0.81170180     1.10100
C4267       C  0.71759950  0.67902405  0.82308039     1.09900
C4268       C  0.66011830  0.71307098  0.82096952     1.10100
C4269       C  0.79035453  0.75227523  0.82099438     1.10000
O4270       O  0.80419930  0.77992133  0.75262032    -0.79600
O4271       O  0.67688000  0.70560935  0.73118110    -0.79700
O4272       O  0.72514578  0.79472316  0.73938368    -0.79600
O4273       O  0.72358059  0.68669815  0.72055735    -0.79600
O4274       O  0.68447268  0.66613178  0.75776454    -0.79700
O4275       O  0.76572707  0.79389275  0.72521250    -0.79600
O4276       O  0.77947065  0.73951907  0.71855478    -0.79600
O4277       O  0.67224426  0.74331081  0.74631452    -0.79700
Co4278     Co  0.76677666  0.77783159  0.77334019     1.51500
Co4279     Co  0.69333645  0.70586382  0.77894304     1.51700
Co4280     Co  0.70976181  0.76368248  0.77779297     1.51600
Co4281     Co  0.75428907  0.71226900  0.75751425     1.51500
O4282       O  0.73273793  0.73756527  0.76155626    -1.41600
C4283       C  0.80306989  0.76490159  0.72501187     1.10000
C4284       C  0.66503882  0.72124135  0.72565913     1.10100
C4285       C  0.74824407  0.80414660  0.71991839     1.10000
C4286       C  0.69708398  0.66514025  0.72879281     1.10000
O4287       O  0.76891006  0.97074942  0.72914311    -0.79600
O4288       O  0.69041021  0.52296744  0.75788144    -0.79700
O4289       O  0.67169681  0.92927054  0.74600282    -0.79700
O4290       O  0.78261735  0.53942448  0.71800254    -0.79600
O4291       O  0.67790833  0.97231039  0.73126478    -0.79700
O4292       O  0.80594544  0.52363418  0.75349552    -0.79600
O4293       O  0.72885017  0.53933918  0.72013193    -0.79600
O4294       O  0.72452512  0.93063180  0.73661379    -0.79700
C4295       C  0.74958624  0.94391090  0.72046688     1.10100
C4296       C  0.70315356  0.53580322  0.72856093     1.09900
C4297       C  0.66407977  0.94434916  0.72658202     1.10100
C4298       C  0.80554149  0.53686585  0.72507994     1.10000
O4299       O  0.77419408  0.51059310  0.82175554    -0.79600
O4300       O  0.65735342  0.96716299  0.80103478    -0.79700
O4301       O  0.74210113  0.94588255  0.81125309    -0.79600
O4302       O  0.73779414  0.55566935  0.79478179    -0.79600
O4303       O  0.71366632  0.51388725  0.82547303    -0.79700
O4304       O  0.79125135  0.97282426  0.79455122    -0.79600
O4305       O  0.79070795  0.55332630  0.79354957    -0.79600
O4306       O  0.68763514  0.95011349  0.81928059    -0.79700
Co4307     Co  0.76835027  0.98915910  0.77600503     1.51500
Co4308     Co  0.69658680  0.98942465  0.77843122     1.51700
Co4309     Co  0.70998534  0.94583257  0.77635699     1.51600
Co4310     Co  0.75825652  0.54334396  0.75677835     1.51500
O4311       O  0.73502769  0.99523057  0.76075706    -1.41600
C4312       C  0.79187614  0.53923811  0.82075593     1.10000
C4313       C  0.66151606  0.94866514  0.81990720     1.10100
C4314       C  0.77022156  0.95195684  0.81308749     1.10000
C4315       C  0.72380818  0.54240534  0.82326407     1.10000
O4316       O  0.96695327  0.68667461  0.72710198    -0.79600
O4317       O  0.51238437  0.81386103  0.76172434    -0.79700
O4318       O  0.92615529  0.73405336  0.72889134    -0.79700
O4319       O  0.52724740  0.73763999  0.71859585    -0.79600
O4320       O  0.95742431  0.78076317  0.74548285    -0.79700
O4321       O  0.51600190  0.69898726  0.75318750    -0.79600
O4322       O  0.52555182  0.79022657  0.72246787    -0.79600
O4323       O  0.92299081  0.68046619  0.74265831    -0.79700
C4324       C  0.93870463  0.67356526  0.72261244     1.10100
C4325       C  0.52399571  0.81328355  0.73146104     1.09900
C4326       C  0.93675774  0.76210280  0.72480316     1.10100
C4327       C  0.52796563  0.71360406  0.72480553     1.10000
O4328       O  0.50186858  0.71376817  0.82181797    -0.79600
O4329       O  0.96418621  0.79715437  0.81415959    -0.79700
O4330       O  0.93546109  0.69852100  0.81907276    -0.79600
O4331       O  0.54425287  0.79831654  0.79577325    -0.79600
O4332       O  0.50422374  0.77875291  0.82949533    -0.79700
O4333       O  0.95064301  0.66882846  0.79749219    -0.79600
O4334       O  0.54420800  0.74448106  0.79491570    -0.79600
O4335       O  0.93009266  0.74799763  0.80578649    -0.79700
Co4336     Co  0.98351566  0.70510080  0.77417419     1.51500
Co4337     Co  0.97955693  0.77626696  0.78744570     1.51700
Co4338     Co  0.93419738  0.71786138  0.77290856     1.51600
Co4339     Co  0.53114719  0.76564667  0.75817202     1.51500
O4340       O  0.98346934  0.74322978  0.76512673    -1.41600
C4341       C  0.53045289  0.72694597  0.82123974     1.10000
C4342       C  0.93811288  0.77378108  0.82071074     1.10100
C4343       C  0.93545352  0.67374491  0.82026613     1.10000
C4344       C  0.53235211  0.79808598  0.82556161     1.10000
loop_ 
_geom_bond_atom_site_label_1 
_geom_bond_atom_site_label_2 
_geom_bond_distance 
_geom_bond_site_symmetry_2 
_ccdc_geom_bond_type 
N1            C6   1.353       .  A
N1            C5   1.354       .  A
N1           H33   1.040       .  S
N2            C9   1.353       .  A
N2           C10   1.351       .  A
N3            C8   1.358       .  A
N3            C7   1.357       .  A
N3           H34   1.038       .  S
N4           C11   1.352       .  A
N4           C12   1.351       .  A
C5           C13   1.386       .  A
C5           C21   1.422       .  A
C6           C22   1.420       .  A
C6           C14   1.386       .  A
C7           C15   1.387       .  A
C7           C24   1.423       .  A
C8           C23   1.421       .  A
C8           C16   1.385       .  A
C9           C21   1.412       .  A
C9           C17   1.382       .  A
C10          C24   1.403       .  A
C10          C18   1.380       .  A
C11          C19   1.383       .  A
C11          C22   1.412       .  A
C12          C20   1.380       .  A
C12          C23   1.403       .  A
C13          C14   1.386       .  A
C13          H25   1.081       .  S
C14          H26   1.081       .  S
C15          C16   1.372       .  A
C15          H27   1.080       .  S
C16          H28   1.081       .  S
C17          C18   1.378       .  A
C17          H29   1.081       .  S
C18          H30   1.082       .  S
C19          C20   1.379       .  A
C19          H31   1.081       .  S
C20          H32   1.081       .  S
C21         C450   1.506       .  S
C22         C138   1.501       .  S
C23         C494   1.491       .  S
C24         C484   1.492       .  S
N35          C40   1.348       .  A
N35          C39   1.347       .  A
N35          H67   1.044       .  S
N36          C43   1.339       .  A
N36          C44   1.340       .  A
N37          C42   1.346       .  A
N37          C41   1.347       .  A
N37          H68   1.045       .  S
N38          C45   1.340       .  A
N38          C46   1.336       .  A
C39          C47   1.385       .  A
C39          C55   1.412       .  A
C40          C56   1.414       .  A
C40          C48   1.385       .  A
C41          C49   1.383       .  A
C41          C58   1.406       .  A
C42          C57   1.406       .  A
C42          C50   1.386       .  A
C43          C55   1.398       .  A
C43          C51   1.382       .  A
C44          C58   1.394       .  A
C44          C52   1.384       .  A
C45          C53   1.386       .  A
C45          C56   1.400       .  A
C46          C54   1.390       .  A
C46          C57   1.401       .  A
C47          C48   1.384       .  A
C47         H602   1.081       .  S
C48         H603   1.080       .  S
C49          C50   1.386       .  A
C49          H61   1.082       .  S
C50          H62   1.082       .  S
C51          C52   1.386       .  A
C51          H63   1.081       .  S
C52          H64   1.082       .  S
C53          C54   1.386       .  A
C53          H65   1.082       .  S
C54          H66   1.081       .  S
C55         C140   1.484       .  S
C56         C452   1.482       .  S
C57         C465   1.456       .  S
C58         C513   1.466       .  S
H59         C590   1.081       .  S
H60         C591   1.081       .  S
N69          C74   1.349       .  A
N69          C73   1.351       .  A
N69         H101   1.044       .  S
N70          C77   1.343       .  A
N70          C78   1.336       .  A
N71          C76   1.357       .  A
N71          C75   1.355       .  A
N71         H102   1.037       .  S
N72          C79   1.356       .  A
N72          C80   1.352       .  A
C73          C81   1.384       .  A
C73          C89   1.414       .  A
C74          C90   1.411       .  A
C74          C82   1.386       .  A
C75          C83   1.379       .  A
C75          C92   1.411       .  A
C76          C91   1.434       .  A
C76          C84   1.396       .  A
C77          C89   1.400       .  A
C77          C85   1.387       .  A
C78          C92   1.393       .  A
C78          C86   1.387       .  A
C79          C87   1.378       .  A
C79          C90   1.416       .  A
C80          C88   1.379       .  A
C80          C91   1.418       .  A
C81          C82   1.381       .  A
C81         H636   1.081       .  S
C82         H637   1.081       .  S
C83          C84   1.371       .  A
C83          H95   1.082       .  S
C84          H96   1.078       .  S
C85          C86   1.379       .  A
C85          H97   1.082       .  S
C86          H98   1.082       .  S
C87          C88   1.379       .  A
C87        H1185   1.081       .  S
C88         H100   1.071       .  S
C89         C426   1.482       .  S
C90         C141   1.505       .  S
C91         C511   1.512       .  S
C92         C542   1.469       .  S
H93         C624   1.081       .  S
H94         C625   1.081       .  S
H99        C1173   1.081       .  S
N103        C108   1.352       .  A
N103        C107   1.349       .  A
N103        H135   1.040       .  S
N104        C111   1.349       .  A
N104        C112   1.351       .  A
N105        C110   1.350       .  A
N105        C109   1.347       .  A
N105        H136   1.041       .  S
N106        C113   1.346       .  A
N106        C114   1.345       .  A
C107        C115   1.388       .  A
C107        C123   1.417       .  A
C108        C124   1.415       .  A
C108        C116   1.385       .  A
C109        C117   1.381       .  A
C109        C126   1.409       .  A
C110        C125   1.406       .  A
C110        C118   1.384       .  A
C111        C123   1.411       .  A
C111        C119   1.384       .  A
C112        C126   1.406       .  A
C112        C120   1.382       .  A
C113        C121   1.380       .  A
C113        C124   1.401       .  A
C114        C122   1.385       .  A
C114        C125   1.400       .  A
C115        C116   1.384       .  A
C115        H127   1.081       .  S
C116        H128   1.081       .  S
C117        C118   1.380       .  A
C117        H129   1.073       .  S
C118        H130   1.081       .  S
C119        C120   1.384       .  A
C119        H131   1.082       .  S
C120        H132   1.082       .  S
C121        C122   1.378       .  A
C121       H1219   1.081       .  S
C122        H134   1.081       .  S
C123        C428   1.496       .  S
C124        C137   1.492       .  S
C125        C497   1.470       .  S
C126        C523   1.486       .  S
H133       C1207   1.081       .  S
C137        C142   1.410       .  A
C137       C1224   1.421   1_545  A
C138        C139   1.400       .  A
C138       C1223   1.421       .  A
C139        C683   1.406   1_554  A
C139        H144   1.086       .  S
C140        C682   1.406       .  A
C140       C1227   1.420       .  A
C141       C1226   1.421   1_545  A
C141        C685   1.408       .  A
C142        C684   1.409   1_554  A
C142        H143   1.085       .  S
N145        C150   1.354       .  A
N145        C149   1.342       .  A
N145        H177   1.043       .  S
N146        C153   1.363       .  A
N146        C154   1.366       .  A
N147        C152   1.355       .  A
N147        C151   1.360       .  A
N147        H178   1.041       .  S
N148        C155   1.350       .  A
N148        C156   1.339       .  A
C149        C157   1.384       .  A
C149        C165   1.403       .  A
C150        C166   1.413       .  A
C150        C158   1.384       .  A
C151        C159   1.393       .  A
C151        C168   1.433       .  A
C152        C167   1.421       .  A
C152        C160   1.384       .  A
C153        C165   1.418       .  A
C153        C161   1.384       .  A
C154        C168   1.420       .  A
C154        C162   1.381       .  A
C155        C163   1.380       .  A
C155        C166   1.396       .  A
C156        C164   1.382       .  A
C156        C167   1.386       .  A
C157        C158   1.381       .  A
C157        H712   1.081       .  S
C158        H713   1.080       .  S
C159        C160   1.382       .  A
C159        H171   1.079       .  S
C160        H172   1.081       .  S
C161        C162   1.375       .  A
C161        H173   1.082       .  S
C162        H174   1.081       .  S
C163        C164   1.373       .  A
C163        H175   1.081       .  S
C164        H176   1.083       .  S
C165        C453   1.515       .  S
C166        C441   1.496       .  S
C167        C541   1.479       .  S
C168        C468   1.526       .  S
H169        C700   1.081       .  S
H170        C701   1.080       .  S
N179        C184   1.352       .  A
N179        C183   1.347       .  A
N179        H211   1.043       .  S
N180        C187   1.345       .  A
N180        C188   1.349       .  A
N181        C186   1.352       .  A
N181        C185   1.353       .  A
N181        H212   1.043       .  S
N182        C189   1.350       .  A
N182        C190   1.346       .  A
C183        C191   1.387       .  A
C183        C199   1.414       .  A
C184        C200   1.413       .  A
C184        C192   1.383       .  A
C185        C193   1.381       .  A
C185        C202   1.414       .  A
C186        C201   1.414       .  A
C186        C194   1.387       .  A
C187        C199   1.409       .  A
C187        C195   1.385       .  A
C188        C202   1.402       .  A
C188        C196   1.381       .  A
C189        C197   1.379       .  A
C189        C200   1.407       .  A
C190        C198   1.386       .  A
C190        C201   1.406       .  A
C191        C192   1.385       .  A
C191        H203   1.080       .  S
C192        H204   1.080       .  S
C193        C194   1.381       .  A
C193        H205   1.076       .  S
C194        H206   1.081       .  S
C195        C196   1.385       .  A
C195        H207   1.082       .  S
C196        H208   1.082       .  S
C197        C198   1.381       .  A
C197        H209   1.080       .  S
C198        H210   1.081       .  S
C199        C445   1.488       .  S
C200        C449   1.503       .  S
C201        C482   1.476       .  S
C202        C525   1.488       .  S
N213        C218   1.348       .  A
N213        C217   1.349       .  A
N213        H245   1.043       .  S
N214        C221   1.351       .  A
N214        C222   1.348       .  A
N215        C220   1.352       .  A
N215        C219   1.356       .  A
N215        H246   1.043       .  S
N216        C223   1.351       .  A
N216        C224   1.351       .  A
C217        C225   1.383       .  A
C217        C233   1.408       .  A
C218        C234   1.412       .  A
C218        C226   1.387       .  A
C219        C227   1.385       .  A
C219        C236   1.416       .  A
C220        C235   1.416       .  A
C220        C228   1.381       .  A
C221        C233   1.407       .  A
C221       C2401   1.377       .  A
C222        C236   1.414       .  A
C222        C230   1.390       .  A
C223        C231   1.384       .  A
C223        C234   1.415       .  A
C224        C232   1.384       .  A
C224        C235   1.412       .  A
C225        C226   1.381       .  A
C225        H237   1.080       .  S
C226        H238   1.080       .  S
C227        C228   1.383       .  A
C227        H239   1.081       .  S
C228        H240   1.076       .  S
C229       C2393   1.377       .  A
C229       C2402   1.380       .  A
C229        H241   1.081       .  S
C230       C2401   1.380       .  A
C230       H2414   1.080       .  S
C231        C232   1.387       .  A
C231        H243   1.082       .  S
C232        H244   1.081       .  S
C233       C2616   1.500   1_455  S
C234        C434   1.499       .  S
C235        C496   1.495       .  S
C236        C524   1.490       .  S
H242       C2402   1.080       .  S
N247        C252   1.348       .  A
N247        C251   1.354       .  A
N247        H279   1.043       .  S
N248        C255   1.345       .  A
N248        C256   1.338       .  A
N249        C254   1.359       .  A
N249        C253   1.354       .  A
N249        H280   1.037       .  S
N250        C257   1.354       .  A
N250        C258   1.355       .  A
C251        C259   1.382       .  A
C251        C267   1.414       .  A
C252        C268   1.416       .  A
C252        C260   1.389       .  A
C253        C261   1.378       .  A
C253        C270   1.414       .  A
C254        C269   1.440       .  A
C254        C262   1.396       .  A
C255        C267   1.391       .  A
C255        C263   1.381       .  A
C256        C270   1.382       .  A
C256        C264   1.382       .  A
C257        C268   1.420       .  A
C257       C2437   1.383       .  A
C258        C266   1.383       .  A
C258        C269   1.419       .  A
C259        C260   1.383       .  A
C259        H814   1.080       .  S
C260        H815   1.081       .  S
C261        C262   1.377       .  A
C261        H273   1.080       .  S
C262        H274   1.078       .  S
C263        C264   1.374       .  A
C263        H275   1.081       .  S
C264        H276   1.082       .  S
C265       C2429   1.382       .  A
C265       C2438   1.382       .  A
C265        H277   1.081       .  S
C266       C2437   1.381       .  A
C266       H2450   1.083       .  S
C267        C436   1.488       .  S
C268       C2614   1.496   1_455  S
C269        C543   1.518       .  S
C270        C512   1.470       .  S
H271        C802   1.080       .  S
H272        C803   1.081       .  S
H278       C2438   1.082       .  S
N281        C286   1.349       .  A
N281        C285   1.344       .  A
N281        H313   1.041       .  S
N282        C289   1.355       .  A
N282        C290   1.354       .  A
N283        C288   1.350       .  A
N283        C287   1.340       .  A
N283        H314   1.037       .  S
N284        C291   1.346       .  A
N284        C292   1.345       .  A
C285        C293   1.382       .  A
C285        C301   1.401       .  A
C286        C302   1.408       .  A
C286        C294   1.385       .  A
C287        C295   1.387       .  A
C287        C304   1.399       .  A
C288        C303   1.406       .  A
C288        C296   1.389       .  A
C289        C301   1.405       .  A
C289        C297   1.386       .  A
C290        C304   1.401       .  A
C290        C298   1.380       .  A
C291        C299   1.378       .  A
C291        C302   1.398       .  A
C292        C300   1.388       .  A
C292        C303   1.407       .  A
C293        C294   1.378       .  A
C293        H305   1.081       .  S
C294        H306   1.078       .  S
C295        C296   1.367       .  A
C295        H307   1.079       .  S
C296        H308   1.079       .  S
C297        C298   1.373       .  A
C297        H309   1.082       .  S
C298        H310   1.083       .  S
C299        C300   1.376       .  A
C299       H1397   1.081       .  S
C300       H1398   1.080       .  S
C301        C349   1.513       .  S
C302        C433   1.486       .  S
C303        C495   1.468       .  S
C304        C485   1.459       .  S
H311       C1385   1.081       .  S
H312       C1386   1.080       .  S
N315        C320   1.348       .  A
N315        C319   1.352       .  A
N315        H347   1.042       .  S
N316        C323   1.358       .  A
N316        C324   1.354       .  A
N317        C322   1.362       .  A
N317        C321   1.365       .  A
N317        H348   1.041       .  S
N318        C325   1.364       .  A
N318        C326   1.361       .  A
C319        C327   1.386       .  A
C319        C335   1.411       .  A
C320        C336   1.404       .  A
C320        C328   1.381       .  A
C321        C329   1.389       .  A
C321        C338   1.441       .  A
C322        C337   1.433       .  A
C322        C330   1.388       .  A
C323        C335   1.417       .  A
C323        C331   1.377       .  A
C324        C338   1.417       .  A
C324        C332   1.378       .  A
C325        C333   1.384       .  A
C325        C336   1.414       .  A
C326        C334   1.383       .  A
C326        C337   1.423       .  A
C327        C328   1.378       .  A
C327        H882   1.080       .  S
C328        H883   1.081       .  S
C329        C330   1.380       .  A
C329        H341   1.080       .  S
C330        H342   1.080       .  S
C331        C332   1.375       .  A
C331       H1429   1.080       .  S
C332       H1430   1.071       .  S
C333        C334   1.374       .  A
C333        H345   1.082       .  S
C334        H346   1.082       .  S
C335        C437   1.508       .  S
C336        C353   1.527       .  S
C337        C466   1.521       .  S
C338        C514   1.529       .  S
H339        C870   1.080       .  S
H340        C871   1.081       .  S
H343       C1417   1.080       .  S
H344       C1418   1.070       .  S
C349        C350   1.414       .  A
C349        C354   1.423       .  A
C350        C351   1.402       .  A
C350        C411   1.485       .  S
C351        C895   1.404   1_554  A
C351        H356   1.086       .  S
C352        C353   1.420       .  A
C352        C894   1.405       .  A
C352        C377   1.487       .  S
C353        C897   1.422       .  A
C354        C896   1.422   1_554  A
C354        H355   1.084       .  S
N357        C362   1.345       .  A
N357        C361   1.355       .  A
N357        H389   1.041       .  S
N358        C365   1.346       .  A
N358        C366   1.337       .  A
N359        C364   1.358       .  A
N359        C363   1.354       .  A
N359        H390   1.041       .  S
N360        C367   1.362       .  A
N360        C368   1.362       .  A
C361        C369   1.386       .  A
C361        C377   1.417       .  A
C362        C378   1.406       .  A
C362        C370   1.384       .  A
C363        C371   1.380       .  A
C363        C380   1.413       .  A
C364        C379   1.424       .  A
C364        C372   1.392       .  A
C365        C377   1.400       .  A
C365        C373   1.384       .  A
C366        C380   1.393       .  A
C366        C374   1.385       .  A
C367        C378   1.412       .  A
C367       C2547   1.382   1_455  A
C368        C376   1.384       .  A
C368        C379   1.424       .  A
C369        C370   1.381       .  A
C369        H924   1.081       .  S
C370        H925   1.082       .  S
C371        C372   1.373       .  A
C371        H383   1.082       .  S
C372        H384   1.078       .  S
C373        C374   1.374       .  A
C373        H385   1.082       .  S
C374        H386   1.082       .  S
C375       C2539   1.382       .  A
C375       C2548   1.376       .  A
C375        H387   1.082       .  S
C376       C2547   1.374   1_455  A
C376       H2560   1.082   1_455  S
C378       C2597   1.512   1_455  S
C379        C540   1.514       .  S
C380        C467   1.465       .  S
H381        C912   1.081       .  S
H382        C913   1.082       .  S
H388       C2548   1.080       .  S
N391        C396   1.349       .  A
N391        C395   1.345       .  A
N391        H423   1.043       .  S
N392        C399   1.348       .  A
N392        C400   1.346       .  A
N393        C398   1.349       .  A
N393        C397   1.348       .  A
N393        H424   1.044       .  S
N394        C401   1.347       .  A
N394        C402   1.344       .  A
C395        C403   1.387       .  A
C395        C411   1.410       .  A
C396        C412   1.407       .  A
C396        C404   1.383       .  A
C397        C405   1.384       .  A
C397        C414   1.409       .  A
C398        C413   1.403       .  A
C398        C406   1.387       .  A
C399        C411   1.414       .  A
C399        C407   1.386       .  A
C400        C414   1.411       .  A
C400        C408   1.387       .  A
C401        C412   1.406       .  A
C401       C2581   1.380       .  A
C402        C410   1.386       .  A
C402        C413   1.405       .  A
C403        C404   1.381       .  A
C403        H415   1.081       .  S
C404        H416   1.081       .  S
C405        C406   1.374       .  A
C405        H417   1.075       .  S
C406        H418   1.080       .  S
C407        C408   1.386       .  A
C407        H419   1.082       .  S
C408        H420   1.082       .  S
C409       C2573   1.380       .  A
C409       C2582   1.384       .  A
C409        H421   1.081       .  S
C410       C2581   1.384       .  A
C410       H2594   1.081       .  S
C412       C2601   1.496       .  S
C413        C526   1.467       .  S
C414        C483   1.476       .  S
H422       C2582   1.081       .  S
C425        C426   1.419       .  A
C425       C3145   1.416       .  A
C425       C2550   1.511       .  S
C426        C970   1.404       .  A
C427        C428   1.402       .  A
C427        C969   1.406   1_554  A
C427        H432   1.086       .  S
C428        C429   1.416       .  A
C429       C2602   1.415       .  A
C429       C2584   1.499       .  S
C430       C3140   1.415   1_454  A
C430       C2601   1.413       .  A
C430        H431   1.085       .  S
C433        C438   1.409       .  A
C433       C1520   1.415   1_545  A
C434        C435   1.406       .  A
C434       C1519   1.416       .  A
C435        C979   1.406   1_554  A
C435        H440   1.085       .  S
C436        C978   1.406       .  A
C436       C1523   1.423       .  A
C437       C1522   1.421   1_545  A
C437        C981   1.406       .  A
C438        C980   1.406   1_554  A
C438        H439   1.085       .  S
C441        C442   1.419       .  A
C441        C989   1.401       .  A
C442       C3158   1.414       .  A
C442       C2440   1.500       .  S
C443       C3157   1.410   1_454  A
C443       C2616   1.411   1_455  A
C443        H448   1.085       .  S
C444        C445   1.417       .  A
C444       C2615   1.408       .  A
C444       C2405   1.499       .  S
C445        C446   1.405       .  A
C446        C984   1.401   1_554  A
C446        H447   1.085       .  S
C449        C450   1.424       .  A
C449        C454   1.417       .  A
C450        C451   1.401       .  A
C451        C995   1.408   1_554  A
C451        H456   1.086       .  S
C452        C453   1.418       .  A
C452        C994   1.407       .  A
C453        C997   1.418       .  A
C454        C996   1.419   1_554  A
C454        H455   1.085       .  S
O457        C465   1.267       .  A
O457       Co477   1.881       .  S
O458        C466   1.256       .  A
O458       Co478   1.969       .  S
O459        C467   1.260       .  A
O459       Co479   1.996       .  S
O460        C468   1.275       .  A
O460       Co480   2.043       .  S
O461        C467   1.250       .  A
O461       Co478   1.954       .  S
O462        C468   1.267       .  A
O462       Co477   2.000       .  S
O463        C466   1.272       .  A
O463       Co480   2.046       .  S
O464        C465   1.291       .  A
O464       Co479   2.061       .  S
O469        C482   1.264       .  A
O469       Co477   2.004       .  S
O470        C483   1.248       .  A
O470       Co478   1.951       .  S
O471        C484   1.250       .  A
O471       Co479   1.981       .  S
O472        C485   1.271       .  A
O472       Co480   2.011       .  S
O473        C485   1.260       .  A
O473       Co478   1.951       .  S
O474        C484   1.253       .  A
O474       Co477   1.996       .  S
O475        C482   1.259       .  A
O475       Co480   1.978       .  S
O476        C483   1.270       .  A
O476       Co479   2.033       .  S
Co477       O481   1.946       .  S
Co478       O481   1.974       .  S
Co479       O481   2.188       .  S
Co480       O481   2.109       .  S
O486        C494   1.252       .  A
O486       Co506   1.992       .  S
O487        C495   1.273       .  A
O487      Co1593   1.999   1_545  S
O488        C496   1.253       .  A
O488       Co508   2.026       .  S
O489        C497   1.261       .  A
O489       Co509   1.974       .  S
O490        C496   1.238       .  A
O490       Co507   1.983       .  S
O491        C497   1.265       .  A
O491      Co1592   1.999   1_545  S
O492        C495   1.261       .  A
O492       Co509   1.961       .  S
O493        C494   1.252       .  A
O493       Co508   1.985       .  S
O498        C511   1.267       .  A
O498      Co1592   2.007   1_545  S
O499        C512   1.278       .  A
O499       Co507   1.911       .  S
O500        C513   1.297       .  A
O500       Co508   2.088       .  S
O501        C514   1.268       .  A
O501       Co509   2.030       .  S
O502        C514   1.271       .  A
O502      Co1593   2.014   1_545  S
O503        C513   1.266       .  A
O503       Co506   1.877       .  S
O504        C511   1.266       .  A
O504       Co509   2.001       .  S
O505        C512   1.287       .  A
O505       Co508   2.040       .  S
Co506      O1577   2.008       .  S
Co506      O1584   2.005       .  S
Co506       O510   1.948       .  S
Co507      O1573   2.000       .  S
Co507      O1588   2.018       .  S
Co507       O510   1.936       .  S
Co508       O510   2.246       .  S
Co509      O1596   2.081   1_545  S
O510      Co1595   2.080       .  S
O515        C523   1.236       .  A
O515       Co535   1.986       .  S
O516        C524   1.282       .  A
O516      Co2708   2.050   1_455  S
O517        C525   1.255       .  A
O517       Co537   1.988       .  S
O518        C526   1.264       .  A
O518       Co538   1.991       .  S
O519        C525   1.255       .  A
O519       Co536   1.999       .  S
O520        C526   1.264       .  A
O520      Co2707   1.977   1_455  S
O521        C524   1.261       .  A
O521       Co538   1.954       .  S
O522        C523   1.248       .  A
O522       Co537   2.013       .  S
O527        C540   1.248       .  A
O527      Co2707   1.950   1_455  S
O528        C541   1.276       .  A
O528       Co536   1.894       .  S
O529        C542   1.287       .  A
O529       Co537   2.036       .  S
O530        C543   1.262       .  A
O530       Co538   2.008       .  S
O531        C543   1.264       .  A
O531      Co2708   1.996   1_455  S
O532        C542   1.279       .  A
O532       Co535   1.913       .  S
O533        C540   1.276       .  A
O533       Co538   2.059       .  S
O534        C541   1.289       .  A
O534       Co537   2.066       .  S
Co535      O2692   2.021       .  S
Co535      O2699   2.001       .  S
Co535       O539   1.939       .  S
Co536      O2688   2.043       .  S
Co536      O2703   1.997       .  S
Co536       O539   1.976       .  S
Co537       O539   2.222       .  S
Co538      O2711   2.113   1_455  S
O539      Co2710   2.079       .  S
N544        C549   1.354       .  A
N544        C548   1.354       .  A
N544        H576   1.040       .  S
N545        C552   1.353       .  A
N545        C553   1.350       .  A
N546        C551   1.357       .  A
N546        C550   1.358       .  A
N546        H577   1.037       .  S
N547        C554   1.352       .  A
N547        C555   1.350       .  A
C548        C556   1.385       .  A
C548        C564   1.421       .  A
C549        C565   1.420       .  A
C549        C557   1.385       .  A
C550        C558   1.387       .  A
C550        C567   1.424       .  A
C551        C566   1.422       .  A
C551        C559   1.386       .  A
C552        C564   1.412       .  A
C552        C560   1.382       .  A
C553        C567   1.402       .  A
C553        C561   1.380       .  A
C554        C562   1.382       .  A
C554        C565   1.411       .  A
C555        C563   1.381       .  A
C555        C566   1.403       .  A
C556        C557   1.385       .  A
C556        H568   1.081       .  S
C557        H569   1.081       .  S
C558        C559   1.372       .  A
C558        H570   1.080       .  S
C559        H571   1.081       .  S
C560        C561   1.378       .  A
C560        H572   1.081       .  S
C561        H573   1.082       .  S
C562        C563   1.377       .  A
C562        H574   1.081       .  S
C563        H575   1.082       .  S
C564        C993   1.505       .  S
C565        C681   1.501       .  S
C566       C1037   1.489       .  S
C567       C1027   1.490       .  S
N578        C583   1.348       .  A
N578        C582   1.347       .  A
N578        H610   1.044       .  S
N579        C586   1.339       .  A
N579        C587   1.340       .  A
N580        C585   1.346       .  A
N580        C584   1.348       .  A
N580        H611   1.044       .  S
N581        C588   1.340       .  A
N581        C589   1.336       .  A
C582        C590   1.384       .  A
C582        C598   1.410       .  A
C583        C599   1.413       .  A
C583        C591   1.385       .  A
C584        C592   1.384       .  A
C584        C601   1.407       .  A
C585        C600   1.408       .  A
C585        C593   1.386       .  A
C586        C598   1.396       .  A
C586        C594   1.381       .  A
C587        C601   1.393       .  A
C587        C595   1.384       .  A
C588        C596   1.386       .  A
C588        C599   1.400       .  A
C589        C597   1.391       .  A
C589        C600   1.402       .  A
C590        C591   1.383       .  A
C592        C593   1.387       .  A
C592        H604   1.082       .  S
C593        H605   1.082       .  S
C594        C595   1.384       .  A
C594        H606   1.081       .  S
C595        H607   1.082       .  S
C596        C597   1.386       .  A
C596        H608   1.082       .  S
C597        H609   1.081       .  S
C598        C683   1.482       .  S
C599        C995   1.481       .  S
C600       C1008   1.456       .  S
C601       C1056   1.464       .  S
N612        C617   1.350       .  A
N612        C616   1.351       .  A
N612        H644   1.043       .  S
N613        C620   1.345       .  A
N613        C621   1.340       .  A
N614        C619   1.357       .  A
N614        C618   1.357       .  A
N614        H645   1.036       .  S
N615        C622   1.358       .  A
N615        C623   1.354       .  A
C616        C624   1.385       .  A
C616        C632   1.415       .  A
C617        C633   1.411       .  A
C617        C625   1.385       .  A
C618        C626   1.378       .  A
C618        C635   1.411       .  A
C619        C634   1.434       .  A
C619        C627   1.397       .  A
C620        C632   1.404       .  A
C620        C628   1.387       .  A
C621        C635   1.398       .  A
C621        C629   1.385       .  A
C622        C630   1.377       .  A
C622        C633   1.418       .  A
C623        C631   1.377       .  A
C623        C634   1.421       .  A
C624        C625   1.381       .  A
C626        C627   1.367       .  A
C626        H638   1.082       .  S
C627        H639   1.077       .  S
C628        C629   1.378       .  A
C628        H640   1.082       .  S
C629        H641   1.082       .  S
C630        C631   1.379       .  A
C630       H1728   1.081       .  S
C631        H643   1.067       .  S
C632        C969   1.484       .  S
C633        C684   1.509       .  S
C634       C1054   1.514       .  S
C635       C1085   1.472       .  S
H642       C1716   1.081       .  S
N646        C651   1.351       .  A
N646        C650   1.350       .  A
N646        H678   1.042       .  S
N647        C654   1.348       .  A
N647        C655   1.349       .  A
N648        C653   1.350       .  A
N648        C652   1.346       .  A
N648        H679   1.043       .  S
N649        C656   1.345       .  A
N649        C657   1.346       .  A
C650        C658   1.388       .  A
C650        C666   1.418       .  A
C651        C667   1.416       .  A
C651        C659   1.385       .  A
C652        C660   1.382       .  A
C652        C669   1.406       .  A
C653        C668   1.405       .  A
C653        C661   1.384       .  A
C654        C666   1.409       .  A
C654        C662   1.384       .  A
C655        C669   1.404       .  A
C655        C663   1.382       .  A
C656        C664   1.380       .  A
C656        C667   1.402       .  A
C657        C665   1.385       .  A
C657        C668   1.401       .  A
C658        C659   1.385       .  A
C658        H670   1.081       .  S
C659        H671   1.081       .  S
C660        C661   1.379       .  A
C660        H672   1.075       .  S
C661        H673   1.080       .  S
C662        C663   1.383       .  A
C662        H674   1.081       .  S
C663        H675   1.082       .  S
C664        C665   1.378       .  A
C664       H1762   1.081       .  S
C665        H677   1.081       .  S
C666        C971   1.495       .  S
C667        C680   1.492       .  S
C668       C1040   1.472       .  S
C669       C1066   1.477       .  S
H676       C1750   1.081       .  S
C680       C1767   1.420   1_545  A
C680        C685   1.407       .  A
C681       C1766   1.421       .  A
C681        C682   1.400       .  A
C682        H687   1.086       .  S
C683       C1770   1.419       .  A
C684       C1769   1.421   1_545  A
C685        H686   1.085       .  S
N688        C693   1.354       .  A
N688        C692   1.341       .  A
N688        H720   1.042       .  S
N689        C696   1.364       .  A
N689        C697   1.367       .  A
N690        C695   1.353       .  A
N690        C694   1.359       .  A
N690        H721   1.041       .  S
N691        C698   1.348       .  A
N691        C699   1.337       .  A
C692        C700   1.384       .  A
C692        C708   1.404       .  A
C693        C709   1.412       .  A
C693        C701   1.383       .  A
C694        C702   1.392       .  A
C694        C711   1.430       .  A
C695        C710   1.417       .  A
C695        C703   1.385       .  A
C696        C708   1.420       .  A
C696        C704   1.384       .  A
C697        C711   1.422       .  A
C697        C705   1.381       .  A
C698        C706   1.380       .  A
C698        C709   1.394       .  A
C699        C707   1.382       .  A
C699        C710   1.382       .  A
C700        C701   1.380       .  A
C702        C703   1.381       .  A
C702        H714   1.080       .  S
C703        H715   1.081       .  S
C704        C705   1.376       .  A
C704        H716   1.082       .  S
C705        H717   1.081       .  S
C706        C707   1.372       .  A
C706        H718   1.081       .  S
C707        H719   1.083       .  S
C708        C996   1.516       .  S
C709        C984   1.494       .  S
C710       C1084   1.470       .  S
C711       C1011   1.526       .  S
N722        C727   1.353       .  A
N722        C726   1.348       .  A
N722        H754   1.043       .  S
N723        C730   1.345       .  A
N723        C731   1.349       .  A
N724        C729   1.352       .  A
N724        C728   1.353       .  A
N724        H755   1.043       .  S
N725        C732   1.350       .  A
N725        C733   1.344       .  A
C726        C734   1.387       .  A
C726        C742   1.415       .  A
C727        C743   1.414       .  A
C727        C735   1.382       .  A
C728        C736   1.380       .  A
C728        C745   1.414       .  A
C729        C744   1.413       .  A
C729        C737   1.386       .  A
C730        C742   1.409       .  A
C730        C738   1.385       .  A
C731        C745   1.401       .  A
C731        C739   1.381       .  A
C732        C740   1.380       .  A
C732        C743   1.407       .  A
C733        C741   1.387       .  A
C733        C744   1.406       .  A
C734        C735   1.384       .  A
C734        H746   1.081       .  S
C735        H747   1.080       .  S
C736        C737   1.380       .  A
C736        H748   1.074       .  S
C737        H749   1.080       .  S
C738        C739   1.385       .  A
C738        H750   1.082       .  S
C739        H751   1.082       .  S
C740        C741   1.381       .  A
C740        H752   1.080       .  S
C741        H753   1.081       .  S
C742        C988   1.489       .  S
C743        C992   1.502       .  S
C744       C1025   1.475       .  S
C745       C1068   1.488       .  S
N756        C761   1.348       .  A
N756        C760   1.349       .  A
N756        H788   1.043       .  S
N757        C764   1.352       .  A
N757        C765   1.348       .  A
N758        C763   1.352       .  A
N758        C762   1.355       .  A
N758        H789   1.043       .  S
N759        C766   1.351       .  A
N759        C767   1.350       .  A
C760        C768   1.382       .  A
C760        C776   1.408       .  A
C761        C777   1.412       .  A
C761        C769   1.386       .  A
C762        C770   1.386       .  A
C762        C779   1.416       .  A
C763        C778   1.416       .  A
C763        C771   1.381       .  A
C764        C776   1.406       .  A
C764       C2944   1.377       .  A
C765        C779   1.414       .  A
C765        C773   1.390       .  A
C766        C774   1.384       .  A
C766        C777   1.415       .  A
C767        C775   1.383       .  A
C767        C778   1.411       .  A
C768        C769   1.380       .  A
C768        H780   1.080       .  S
C769        H781   1.080       .  S
C770        C771   1.383       .  A
C770        H782   1.081       .  S
C771        H783   1.076       .  S
C772       C2936   1.378       .  A
C772       C2945   1.380       .  A
C772        H784   1.081       .  S
C773       C2944   1.379       .  A
C773       H2957   1.080       .  S
C774        C775   1.386       .  A
C774        H786   1.082       .  S
C775        H787   1.082       .  S
C776       C3159   1.501   1_455  S
C777        C977   1.499       .  S
C778       C1039   1.492       .  S
C779       C1067   1.486       .  S
H785       C2945   1.080       .  S
N790        C795   1.349       .  A
N790        C794   1.354       .  A
N790        H822   1.040       .  S
N791        C798   1.345       .  A
N791        C799   1.340       .  A
N792        C797   1.359       .  A
N792        C796   1.355       .  A
N792        H823   1.031       .  S
N793        C800   1.355       .  A
N793        C801   1.355       .  A
C794        C802   1.383       .  A
C794        C810   1.414       .  A
C795        C811   1.416       .  A
C795        C803   1.389       .  A
C796        C804   1.379       .  A
C796        C813   1.414       .  A
C797        C812   1.439       .  A
C797        C805   1.396       .  A
C798        C810   1.391       .  A
C798        C806   1.382       .  A
C799        C813   1.379       .  A
C799        C807   1.380       .  A
C800       C2980   1.384       .  A
C800        C811   1.420       .  A
C801        C809   1.383       .  A
C801        C812   1.417       .  A
C802        C803   1.383       .  A
C804        C805   1.380       .  A
C804        H816   1.081       .  S
C805        H817   1.079       .  S
C806        C807   1.372       .  A
C806        H818   1.082       .  S
C807        H819   1.083       .  S
C808       C2972   1.383       .  A
C808       C2981   1.380       .  A
C808        H820   1.081       .  S
C809       C2980   1.380       .  A
C809       H2993   1.083       .  S
C810        C979   1.489       .  S
C811       C3157   1.498   1_455  S
C812       C1086   1.516       .  S
C813       C1055   1.472       .  S
H821       C2981   1.083       .  S
N824        C829   1.349       .  A
N824        C828   1.344       .  A
N824        H856   1.040       .  S
N825        C832   1.357       .  A
N825        C833   1.355       .  A
N826        C831   1.350       .  A
N826        C830   1.340       .  A
N826        H857   1.037       .  S
N827        C834   1.346       .  A
N827        C835   1.346       .  A
C828        C836   1.382       .  A
C828        C844   1.403       .  A
C829        C845   1.408       .  A
C829        C837   1.385       .  A
C830        C838   1.387       .  A
C830        C847   1.398       .  A
C831        C846   1.404       .  A
C831        C839   1.388       .  A
C832        C844   1.408       .  A
C832        C840   1.386       .  A
C833        C847   1.403       .  A
C833        C841   1.379       .  A
C834        C842   1.379       .  A
C834        C845   1.399       .  A
C835        C843   1.388       .  A
C835        C846   1.406       .  A
C836        C837   1.378       .  A
C836        H848   1.081       .  S
C837        H849   1.079       .  S
C838        C839   1.367       .  A
C838        H850   1.079       .  S
C839        H851   1.079       .  S
C840        C841   1.374       .  A
C840        H852   1.082       .  S
C841        H853   1.083       .  S
C842        C843   1.377       .  A
C842       H1940   1.082       .  S
C843       H1941   1.080       .  S
C844        C892   1.518       .  S
C845        C976   1.486       .  S
C846       C1038   1.466       .  S
C847       C1028   1.460       .  S
H854       C1928   1.081       .  S
H855       C1929   1.080       .  S
N858        C863   1.348       .  A
N858        C862   1.352       .  A
N858        H890   1.042       .  S
N859        C866   1.358       .  A
N859        C867   1.353       .  A
N860        C865   1.362       .  A
N860        C864   1.365       .  A
N860        H891   1.040       .  S
N861        C868   1.364       .  A
N861        C869   1.361       .  A
C862        C870   1.385       .  A
C862        C878   1.410       .  A
C863        C879   1.403       .  A
C863        C871   1.381       .  A
C864        C872   1.389       .  A
C864        C881   1.440       .  A
C865        C880   1.433       .  A
C865        C873   1.388       .  A
C866        C878   1.415       .  A
C866        C874   1.375       .  A
C867        C881   1.417       .  A
C867        C875   1.377       .  A
C868        C876   1.383       .  A
C868        C879   1.412       .  A
C869        C877   1.382       .  A
C869        C880   1.422       .  A
C870        C871   1.377       .  A
C872        C873   1.379       .  A
C872        H884   1.080       .  S
C873        H885   1.080       .  S
C874        C875   1.374       .  A
C874       H1972   1.080       .  S
C875       H1973   1.068       .  S
C876        C877   1.371       .  A
C876        H888   1.082       .  S
C877        H889   1.082       .  S
C878        C980   1.508       .  S
C879        C896   1.526       .  S
C880       C1009   1.519       .  S
C881       C1057   1.528       .  S
H886       C1960   1.079       .  S
H887       C1961   1.072       .  S
C892        C893   1.419       .  A
C892        C897   1.426       .  A
C893        C894   1.406       .  A
C893        C954   1.490       .  S
C894        H899   1.086       .  S
C895        C896   1.422       .  A
C895        C920   1.485       .  S
C897        H898   1.084       .  S
N900        C905   1.343       .  A
N900        C904   1.354       .  A
N900        H932   1.040       .  S
N901        C908   1.346       .  A
N901        C909   1.336       .  A
N902        C907   1.358       .  A
N902        C906   1.353       .  A
N902        H933   1.041       .  S
N903        C910   1.362       .  A
N903        C911   1.363       .  A
C904        C912   1.386       .  A
C904        C920   1.418       .  A
C905        C921   1.404       .  A
C905        C913   1.384       .  A
C906        C914   1.381       .  A
C906        C923   1.413       .  A
C907        C922   1.424       .  A
C907        C915   1.392       .  A
C908        C920   1.401       .  A
C908        C916   1.385       .  A
C909        C923   1.394       .  A
C909        C917   1.386       .  A
C910       C3090   1.382   1_455  A
C910        C921   1.413       .  A
C911        C919   1.384       .  A
C911        C922   1.424       .  A
C912        C913   1.380       .  A
C914        C915   1.375       .  A
C914        H926   1.082       .  S
C915        H927   1.078       .  S
C916        C917   1.375       .  A
C916        H928   1.082       .  S
C917        H929   1.082       .  S
C918       C3082   1.383       .  A
C918       C3091   1.375       .  A
C918        H930   1.082       .  S
C919       C3090   1.374   1_455  A
C919       H3103   1.082   1_455  S
C921       C3140   1.510   1_455  S
C922       C1083   1.516       .  S
C923       C1010   1.463       .  S
H931       C3091   1.082       .  S
N934        C939   1.351       .  A
N934        C938   1.346       .  A
N934        H966   1.043       .  S
N935        C942   1.350       .  A
N935        C943   1.348       .  A
N936        C941   1.349       .  A
N936        C940   1.348       .  A
N936        H967   1.043       .  S
N937        C944   1.349       .  A
N937        C945   1.346       .  A
C938        C946   1.387       .  A
C938        C954   1.412       .  A
C939        C955   1.408       .  A
C939        C947   1.382       .  A
C940        C948   1.385       .  A
C940        C957   1.410       .  A
C941        C956   1.404       .  A
C941        C949   1.387       .  A
C942        C954   1.418       .  A
C942        C950   1.387       .  A
C943        C957   1.416       .  A
C943        C951   1.387       .  A
C944       C3124   1.379       .  A
C944        C955   1.407       .  A
C945        C953   1.386       .  A
C945        C956   1.407       .  A
C946        C947   1.379       .  A
C946        H958   1.081       .  S
C947        H959   1.081       .  S
C948        C949   1.372       .  A
C948        H960   1.076       .  S
C949        H961   1.080       .  S
C950        C951   1.387       .  A
C950        H962   1.082       .  S
C951        H963   1.082       .  S
C952       C3116   1.380       .  A
C952       C3125   1.384       .  A
C952        H964   1.081       .  S
C953       C3124   1.383       .  A
C953       H3137   1.081       .  S
C955       C3144   1.501       .  S
C956       C1069   1.467       .  S
C957       C1026   1.479       .  S
H965       C3125   1.081       .  S
C968        C969   1.420       .  A
C968       C2602   1.418   1_556  A
C968       C3093   1.514       .  S
C970        C971   1.401       .  A
C970        H975   1.086       .  S
C971        C972   1.417       .  A
C972       C3145   1.414       .  A
C972       C3127   1.498       .  S
C973       C2597   1.416   1_455  A
C973       C3144   1.413       .  A
C973        H974   1.085       .  S
C976       C2063   1.416   1_545  A
C976        C981   1.410       .  A
C977       C2062   1.416       .  A
C977        C978   1.404       .  A
C978        H983   1.085       .  S
C979       C2066   1.421       .  A
C980       C2065   1.421   1_545  A
C981        H982   1.085       .  S
C984        C985   1.418       .  A
C985       C2615   1.410   1_556  A
C985       C2983   1.495       .  S
C986       C2614   1.411   1_455  A
C986       C3159   1.410   1_455  A
C986        H991   1.085       .  S
C987       C3158   1.412       .  A
C987        C988   1.418       .  A
C987       C2948   1.504       .  S
C988        C989   1.405       .  A
C989        H990   1.086       .  S
C992        C993   1.424       .  A
C992        C997   1.417       .  A
C993        C994   1.402       .  A
C994        H999   1.086       .  S
C995        C996   1.418       .  A
C997        H998   1.085       .  S
O1000      C1008   1.267       .  A
O1000     Co1020   1.880       .  S
O1001      C1009   1.256       .  A
O1001     Co1021   1.970       .  S
O1002      C1010   1.259       .  A
O1002     Co1022   1.992       .  S
O1003      C1011   1.277       .  A
O1003     Co1023   2.050       .  S
O1004      C1010   1.252       .  A
O1004     Co1021   1.959       .  S
O1005      C1011   1.265       .  A
O1005     Co1020   1.996       .  S
O1006      C1009   1.270       .  A
O1006     Co1023   2.040       .  S
O1007      C1008   1.291       .  A
O1007     Co1022   2.063       .  S
O1012      C1025   1.265       .  A
O1012     Co1020   2.008       .  S
O1013      C1026   1.246       .  A
O1013     Co1021   1.953       .  S
O1014      C1027   1.250       .  A
O1014     Co1022   1.976       .  S
O1015      C1028   1.271       .  A
O1015     Co1023   2.009       .  S
O1016      C1028   1.262       .  A
O1016     Co1021   1.958       .  S
O1017      C1027   1.254       .  A
O1017     Co1020   1.994       .  S
O1018      C1025   1.256       .  A
O1018     Co1023   1.970       .  S
O1019      C1026   1.271       .  A
O1019     Co1022   2.033       .  S
Co1020     O1024   1.947       .  S
Co1021     O1024   1.974       .  S
Co1022     O1024   2.186       .  S
Co1023     O1024   2.108       .  S
O1029      C1037   1.252       .  A
O1029     Co1049   1.990       .  S
O1030      C1038   1.274       .  A
O1030     Co2136   2.000   1_545  S
O1031      C1039   1.253       .  A
O1031     Co1051   2.023       .  S
O1032      C1040   1.260       .  A
O1032     Co1052   1.972       .  S
O1033      C1039   1.238       .  A
O1033     Co1050   1.980       .  S
O1034      C1040   1.267       .  A
O1034     Co2135   2.007   1_545  S
O1035      C1038   1.260       .  A
O1035     Co1052   1.958       .  S
O1036      C1037   1.251       .  A
O1036     Co1051   1.981       .  S
O1041      C1054   1.265       .  A
O1041     Co2135   2.008   1_545  S
O1042      C1055   1.277       .  A
O1042     Co1050   1.910       .  S
O1043      C1056   1.299       .  A
O1043     Co1051   2.091       .  S
O1044      C1057   1.268       .  A
O1044     Co1052   2.030       .  S
O1045      C1057   1.270       .  A
O1045     Co2136   2.012   1_545  S
O1046      C1056   1.265       .  A
O1046     Co1049   1.874       .  S
O1047      C1054   1.266       .  A
O1047     Co1052   2.003       .  S
O1048      C1055   1.289       .  A
O1048     Co1051   2.043       .  S
Co1049     O2120   2.004       .  S
Co1049     O2127   2.005       .  S
Co1049     O1053   1.947       .  S
Co1050     O2116   1.998       .  S
Co1050     O2131   2.012       .  S
Co1050     O1053   1.933       .  S
Co1051     O1053   2.248       .  S
Co1052     O2139   2.076   1_545  S
O1053     Co2138   2.083       .  S
O1058      C1066   1.245       .  A
O1058     Co1078   1.957       .  S
O1059      C1067   1.280       .  A
O1059     Co3251   2.044   1_455  S
O1060      C1068   1.254       .  A
O1060     Co1080   1.978       .  S
O1061      C1069   1.263       .  A
O1061     Co1081   1.990       .  S
O1062      C1068   1.259       .  A
O1062     Co1079   2.012       .  S
O1063      C1069   1.264       .  A
O1063     Co3250   1.977   1_455  S
O1064      C1067   1.260       .  A
O1064     Co1081   1.952       .  S
O1065      C1066   1.266       .  A
O1065     Co1080   2.028       .  S
O1070      C1083   1.249       .  A
O1070     Co3250   1.951   1_455  S
O1071      C1084   1.275       .  A
O1071     Co1079   1.886       .  S
O1072      C1085   1.262       .  A
O1072     Co1080   2.010       .  S
O1073      C1086   1.263       .  A
O1073     Co1081   2.007       .  S
O1074      C1086   1.265       .  A
O1074     Co3251   1.998   1_455  S
O1075      C1085   1.254       .  A
O1075     Co1078   1.958       .  S
O1076      C1083   1.277       .  A
O1076     Co1081   2.064       .  S
O1077      C1084   1.286       .  A
O1077     Co1080   2.054       .  S
Co1078     O3235   1.979       .  S
Co1078     O3242   1.948       .  S
Co1078     O1082   1.976       .  S
Co1079     O3231   2.048       .  S
Co1079     O3246   1.995       .  S
Co1079     O1082   1.972       .  S
Co1080     O1082   2.173       .  S
Co1081     O3254   2.114   1_455  S
O1082     Co3253   2.113       .  S
N1087      C1092   1.353       .  A
N1087      C1091   1.354       .  A
N1087      H1119   1.041       .  S
N1088      C1095   1.353       .  A
N1088      C1096   1.350       .  A
N1089      C1094   1.359       .  A
N1089      C1093   1.357       .  A
N1089      H1120   1.038       .  S
N1090      C1097   1.352       .  A
N1090      C1098   1.350       .  A
C1091      C1099   1.385       .  A
C1091      C1107   1.421       .  A
C1092      C1108   1.419       .  A
C1092      C1100   1.385       .  A
C1093      C1101   1.388       .  A
C1093      C1110   1.426       .  A
C1094      C1109   1.423       .  A
C1094      C1102   1.384       .  A
C1095      C1107   1.411       .  A
C1095      C1103   1.381       .  A
C1096      C1110   1.404       .  A
C1096      C1104   1.382       .  A
C1097      C1105   1.382       .  A
C1097      C1108   1.411       .  A
C1098      C1106   1.380       .  A
C1098      C1109   1.402       .  A
C1099      C1100   1.385       .  A
C1099      H1111   1.081       .  S
C1100      H1112   1.081       .  S
C1101      C1102   1.372       .  A
C1101      H1113   1.080       .  S
C1102      H1114   1.081       .  S
C1103      C1104   1.378       .  A
C1103      H1115   1.081       .  S
C1104      H1116   1.082       .  S
C1105      C1106   1.377       .  A
C1105      H1117   1.081       .  S
C1106      H1118   1.081       .  S
C1107      C1536   1.507       .  S
C1108      C1224   1.501       .  S
C1109      C1580   1.492       .  S
C1110      C1570   1.491       .  S
N1121      C1126   1.348       .  A
N1121      C1125   1.348       .  A
N1121      H1153   1.044       .  S
N1122      C1129   1.340       .  A
N1122      C1130   1.339       .  A
N1123      C1128   1.349       .  A
N1123      C1127   1.349       .  A
N1123      H1154   1.044       .  S
N1124      C1131   1.341       .  A
N1124      C1132   1.338       .  A
C1125      C1133   1.383       .  A
C1125      C1141   1.410       .  A
C1126      C1142   1.414       .  A
C1126      C1134   1.385       .  A
C1127      C1135   1.384       .  A
C1127      C1144   1.411       .  A
C1128      C1143   1.415       .  A
C1128      C1136   1.386       .  A
C1129      C1141   1.396       .  A
C1129      C1137   1.381       .  A
C1130      C1144   1.393       .  A
C1130      C1138   1.384       .  A
C1131      C1139   1.386       .  A
C1131      C1142   1.402       .  A
C1132      C1140   1.391       .  A
C1132      C1143   1.405       .  A
C1133      C1134   1.383       .  A
C1133      H1688   1.081       .  S
C1134      H1689   1.080       .  S
C1135      C1136   1.389       .  A
C1135      H1147   1.082       .  S
C1136      H1148   1.082       .  S
C1137      C1138   1.384       .  A
C1137      H1149   1.081       .  S
C1138      H1150   1.082       .  S
C1139      C1140   1.386       .  A
C1139      H1151   1.082       .  S
C1140      H1152   1.081       .  S
C1141      C1226   1.486       .  S
C1142      C1538   1.483       .  S
C1143      C1551   1.470       .  S
C1144      C1599   1.468       .  S
H1145      C1676   1.080       .  S
H1146      C1677   1.081       .  S
N1155      C1160   1.349       .  A
N1155      C1159   1.351       .  A
N1155      H1187   1.043       .  S
N1156      C1163   1.346       .  A
N1156      C1164   1.340       .  A
N1157      C1162   1.359       .  A
N1157      C1161   1.356       .  A
N1157      H1188   1.037       .  S
N1158      C1165   1.357       .  A
N1158      C1166   1.354       .  A
C1159      C1167   1.385       .  A
C1159      C1175   1.413       .  A
C1160      C1176   1.411       .  A
C1160      C1168   1.386       .  A
C1161      C1169   1.378       .  A
C1161      C1178   1.411       .  A
C1162      C1177   1.435       .  A
C1162      C1170   1.397       .  A
C1163      C1175   1.403       .  A
C1163      C1171   1.386       .  A
C1164      C1178   1.397       .  A
C1164      C1172   1.385       .  A
C1165      C1173   1.377       .  A
C1165      C1176   1.417       .  A
C1166      C1174   1.378       .  A
C1166      C1177   1.419       .  A
C1167      C1168   1.381       .  A
C1167      H1722   1.081       .  S
C1168      H1723   1.081       .  S
C1169      C1170   1.367       .  A
C1169      H1181   1.082       .  S
C1170      H1182   1.077       .  S
C1171      C1172   1.377       .  A
C1171      H1183   1.082       .  S
C1172      H1184   1.082       .  S
C1173      C1174   1.379       .  A
C1174      H1186   1.071       .  S
C1175      C1512   1.484       .  S
C1176      C1227   1.506       .  S
C1177      C1597   1.514       .  S
C1178      C1628   1.469       .  S
H1179      C1710   1.081       .  S
H1180      C1711   1.081       .  S
N1189      C1194   1.350       .  A
N1189      C1193   1.350       .  A
N1189      H1221   1.042       .  S
N1190      C1197   1.348       .  A
N1190      C1198   1.347       .  A
N1191      C1196   1.351       .  A
N1191      C1195   1.347       .  A
N1191      H1222   1.043       .  S
N1192      C1199   1.346       .  A
N1192      C1200   1.347       .  A
C1193      C1201   1.387       .  A
C1193      C1209   1.417       .  A
C1194      C1210   1.415       .  A
C1194      C1202   1.385       .  A
C1195      C1203   1.382       .  A
C1195      C1212   1.408       .  A
C1196      C1211   1.407       .  A
C1196      C1204   1.384       .  A
C1197      C1209   1.407       .  A
C1197      C1205   1.383       .  A
C1198      C1212   1.402       .  A
C1198      C1206   1.382       .  A
C1199      C1207   1.381       .  A
C1199      C1210   1.404       .  A
C1200      C1208   1.385       .  A
C1200      C1211   1.403       .  A
C1201      C1202   1.384       .  A
C1201      H1213   1.081       .  S
C1202      H1214   1.081       .  S
C1203      C1204   1.380       .  A
C1203      H1215   1.075       .  S
C1204      H1216   1.080       .  S
C1205      C1206   1.382       .  A
C1205      H1217   1.081       .  S
C1206      H1218   1.082       .  S
C1207      C1208   1.379       .  A
C1208      H1220   1.081       .  S
C1209      C1514   1.495       .  S
C1210      C1223   1.491       .  S
C1211      C1583   1.476       .  S
C1212      C1609   1.476       .  S
C1223      C1228   1.410       .  A
C1224      C1225   1.400       .  A
C1225      C1769   1.406   1_554  A
C1225      H1230   1.086       .  S
C1226      C1768   1.407       .  A
C1227      C1771   1.409       .  A
C1228      C1770   1.408   1_554  A
C1228      H1229   1.085       .  S
N1231      C1236   1.355       .  A
N1231      C1235   1.343       .  A
N1231      H1263   1.042       .  S
N1232      C1239   1.364       .  A
N1232      C1240   1.367       .  A
N1233      C1238   1.353       .  A
N1233      C1237   1.359       .  A
N1233      H1264   1.041       .  S
N1234      C1241   1.347       .  A
N1234      C1242   1.337       .  A
C1235      C1243   1.385       .  A
C1235      C1251   1.406       .  A
C1236      C1252   1.414       .  A
C1236      C1244   1.383       .  A
C1237      C1245   1.392       .  A
C1237      C1254   1.431       .  A
C1238      C1253   1.416       .  A
C1238      C1246   1.385       .  A
C1239      C1251   1.420       .  A
C1239      C1247   1.384       .  A
C1240      C1254   1.424       .  A
C1240      C1248   1.381       .  A
C1241      C1249   1.381       .  A
C1241      C1252   1.393       .  A
C1242      C1250   1.383       .  A
C1242      C1253   1.382       .  A
C1243      C1244   1.381       .  A
C1243      H1798   1.081       .  S
C1244      H1799   1.080       .  S
C1245      C1246   1.381       .  A
C1245      H1257   1.079       .  S
C1246      H1258   1.081       .  S
C1247      C1248   1.377       .  A
C1247      H1259   1.082       .  S
C1248      H1260   1.081       .  S
C1249      C1250   1.372       .  A
C1249      H1261   1.081       .  S
C1250      H1262   1.083       .  S
C1251      C1539   1.517       .  S
C1252      C1527   1.494       .  S
C1253      C1627   1.472       .  S
C1254      C1554   1.528       .  S
H1255      C1786   1.081       .  S
H1256      C1787   1.080       .  S
N1265      C1270   1.353       .  A
N1265      C1269   1.348       .  A
N1265      H1297   1.042       .  S
N1266      C1273   1.344       .  A
N1266      C1274   1.349       .  A
N1267      C1272   1.350       .  A
N1267      C1271   1.353       .  A
N1267      H1298   1.042       .  S
N1268      C1275   1.351       .  A
N1268      C1276   1.345       .  A
C1269      C1277   1.387       .  A
C1269      C1285   1.416       .  A
C1270      C1286   1.414       .  A
C1270      C1278   1.382       .  A
C1271      C1279   1.380       .  A
C1271      C1288   1.413       .  A
C1272      C1287   1.411       .  A
C1272      C1280   1.387       .  A
C1273      C1285   1.408       .  A
C1273      C1281   1.385       .  A
C1274      C1288   1.401       .  A
C1274      C1282   1.381       .  A
C1275      C1283   1.380       .  A
C1275      C1286   1.409       .  A
C1276      C1284   1.387       .  A
C1276      C1287   1.407       .  A
C1277      C1278   1.384       .  A
C1277      H1289   1.081       .  S
C1278      H1290   1.080       .  S
C1279      C1280   1.379       .  A
C1279      H1291   1.074       .  S
C1280      H1292   1.080       .  S
C1281      C1282   1.385       .  A
C1281      H1293   1.082       .  S
C1282      H1294   1.082       .  S
C1283      C1284   1.382       .  A
C1283      H1295   1.080       .  S
C1284      H1296   1.081       .  S
C1285      C1531   1.488       .  S
C1286      C1535   1.507       .  S
C1287      C1568   1.471       .  S
C1288      C1611   1.489       .  S
N1299      C1304   1.348       .  A
N1299      C1303   1.349       .  A
N1299      H1331   1.042       .  S
N1300      C1307   1.351       .  A
N1300      C1308   1.349       .  A
N1301      C1306   1.350       .  A
N1301      C1305   1.354       .  A
N1301      H1332   1.043       .  S
N1302      C1309   1.351       .  A
N1302      C1310   1.351       .  A
C1303      C1311   1.384       .  A
C1303      C1319   1.409       .  A
C1304      C1320   1.413       .  A
C1304      C1312   1.387       .  A
C1305      C1313   1.385       .  A
C1305      C1322   1.411       .  A
C1306      C1321   1.413       .  A
C1306      C1314   1.381       .  A
C1307      C1319   1.408       .  A
C1307      C3487   1.378       .  A
C1308      C1322   1.413       .  A
C1308      C1316   1.388       .  A
C1309      C1317   1.384       .  A
C1309      C1320   1.416       .  A
C1310      C1318   1.383       .  A
C1310      C1321   1.412       .  A
C1311      C1312   1.381       .  A
C1311      H1323   1.081       .  S
C1312      H1324   1.079       .  S
C1313      C1314   1.382       .  A
C1313      H1325   1.081       .  S
C1314      H1326   1.075       .  S
C1315      C3479   1.377       .  A
C1315      C3488   1.379       .  A
C1315      H1327   1.081       .  S
C1316      C3487   1.381       .  A
C1316      H3500   1.080       .  S
C1317      C1318   1.386       .  A
C1317      H1329   1.082       .  S
C1318      H1330   1.081       .  S
C1319      C3702   1.500   1_455  S
C1320      C1520   1.500       .  S
C1321      C1582   1.492       .  S
C1322      C1610   1.484       .  S
H1328      C3488   1.080       .  S
N1333      C1338   1.348       .  A
N1333      C1337   1.353       .  A
N1333      H1365   1.041       .  S
N1334      C1341   1.343       .  A
N1334      C1342   1.338       .  A
N1335      C1340   1.358       .  A
N1335      C1339   1.354       .  A
N1335      H1366   1.034       .  S
N1336      C1343   1.356       .  A
N1336      C1344   1.356       .  A
C1337      C1345   1.382       .  A
C1337      C1353   1.412       .  A
C1338      C1354   1.415       .  A
C1338      C1346   1.389       .  A
C1339      C1347   1.378       .  A
C1339      C1356   1.412       .  A
C1340      C1355   1.440       .  A
C1340      C1348   1.398       .  A
C1341      C1353   1.389       .  A
C1341      C1349   1.381       .  A
C1342      C1356   1.377       .  A
C1342      C1350   1.381       .  A
C1343      C3523   1.383       .  A
C1343      C1354   1.424       .  A
C1344      C1352   1.384       .  A
C1344      C1355   1.424       .  A
C1345      C1346   1.382       .  A
C1345      H1900   1.080       .  S
C1346      H1901   1.081       .  S
C1347      C1348   1.377       .  A
C1347      H1359   1.081       .  S
C1348      H1360   1.079       .  S
C1349      C1350   1.372       .  A
C1349      H1361   1.082       .  S
C1350      H1362   1.083       .  S
C1351      C3515   1.384       .  A
C1351      C3524   1.380       .  A
C1351      H1363   1.081       .  S
C1352      C3523   1.382       .  A
C1352      H3536   1.082       .  S
C1353      C1522   1.484       .  S
C1354      C3700   1.501   1_455  S
C1355      C1629   1.518       .  S
C1356      C1598   1.468       .  S
H1357      C1888   1.080       .  S
H1358      C1889   1.081       .  S
H1364      C3524   1.083       .  S
N1367      C1372   1.350       .  A
N1367      C1371   1.343       .  A
N1367      H1399   1.039       .  S
N1368      C1375   1.358       .  A
N1368      C1376   1.358       .  A
N1369      C1374   1.352       .  A
N1369      C1373   1.345       .  A
N1369      H1400   1.035       .  S
N1370      C1377   1.349       .  A
N1370      C1378   1.346       .  A
C1371      C1379   1.383       .  A
C1371      C1387   1.402       .  A
C1372      C1388   1.407       .  A
C1372      C1380   1.384       .  A
C1373      C1381   1.384       .  A
C1373      C1390   1.400       .  A
C1374      C1389   1.410       .  A
C1374      C1382   1.390       .  A
C1375      C1387   1.410       .  A
C1375      C1383   1.385       .  A
C1376      C1390   1.404       .  A
C1376      C1384   1.378       .  A
C1377      C1385   1.377       .  A
C1377      C1388   1.400       .  A
C1378      C1386   1.390       .  A
C1378      C1389   1.411       .  A
C1379      C1380   1.378       .  A
C1379      H1391   1.081       .  S
C1380      H1392   1.080       .  S
C1381      C1382   1.369       .  A
C1381      H1393   1.080       .  S
C1382      H1394   1.079       .  S
C1383      C1384   1.373       .  A
C1383      H1395   1.082       .  S
C1384      H1396   1.083       .  S
C1385      C1386   1.377       .  A
C1387      C1435   1.518       .  S
C1388      C1519   1.491       .  S
C1389      C1581   1.469       .  S
C1390      C1571   1.471       .  S
N1401      C1406   1.348       .  A
N1401      C1405   1.353       .  A
N1401      H1433   1.042       .  S
N1402      C1409   1.359       .  A
N1402      C1410   1.354       .  A
N1403      C1408   1.367       .  A
N1403      C1407   1.368       .  A
N1403      H1434   1.040       .  S
N1404      C1411   1.362       .  A
N1404      C1412   1.362       .  A
C1405      C1413   1.385       .  A
C1405      C1421   1.411       .  A
C1406      C1422   1.405       .  A
C1406      C1414   1.381       .  A
C1407      C1415   1.388       .  A
C1407      C1424   1.443       .  A
C1408      C1423   1.442       .  A
C1408      C1416   1.389       .  A
C1409      C1421   1.418       .  A
C1409      C1417   1.377       .  A
C1410      C1424   1.417       .  A
C1410      C1418   1.379       .  A
C1411      C1419   1.385       .  A
C1411      C1422   1.416       .  A
C1412      C1420   1.381       .  A
C1412      C1423   1.420       .  A
C1413      C1414   1.378       .  A
C1413      H1968   1.080       .  S
C1414      H1969   1.081       .  S
C1415      C1416   1.380       .  A
C1415      H1427   1.081       .  S
C1416      H1428   1.080       .  S
C1417      C1418   1.376       .  A
C1419      C1420   1.377       .  A
C1419      H1431   1.082       .  S
C1420      H1432   1.081       .  S
C1421      C1523   1.511       .  S
C1422      C1439   1.527       .  S
C1423      C1552   1.532       .  S
C1424      C1600   1.533       .  S
H1425      C1956   1.080       .  S
H1426      C1957   1.081       .  S
C1435      C1436   1.417       .  A
C1435      C1440   1.426       .  A
C1436      C1437   1.405       .  A
C1436      C1497   1.489       .  S
C1437      C1981   1.406   1_554  A
C1437      H1442   1.086       .  S
C1438      C1980   1.403       .  A
C1438      C1439   1.419       .  A
C1438      C1463   1.482       .  S
C1439      C1983   1.424       .  A
C1440      C1982   1.423   1_554  A
C1440      H1441   1.084       .  S
N1443      C1448   1.341       .  A
N1443      C1447   1.355       .  A
N1443      H1475   1.042       .  S
N1444      C1451   1.343       .  A
N1444      C1452   1.330       .  A
N1445      C1450   1.363       .  A
N1445      C1449   1.357       .  A
N1445      H1476   1.041       .  S
N1446      C1453   1.362       .  A
N1446      C1454   1.365       .  A
C1447      C1455   1.384       .  A
C1447      C1463   1.415       .  A
C1448      C1464   1.403       .  A
C1448      C1456   1.385       .  A
C1449      C1457   1.381       .  A
C1449      C1466   1.419       .  A
C1450      C1465   1.436       .  A
C1450      C1458   1.393       .  A
C1451      C1463   1.396       .  A
C1451      C1459   1.385       .  A
C1452      C1466   1.390       .  A
C1452      C1460   1.389       .  A
C1453      C3633   1.383   1_455  A
C1453      C1464   1.418       .  A
C1454      C1462   1.382       .  A
C1454      C1465   1.422       .  A
C1455      C1456   1.381       .  A
C1455      H2010   1.081       .  S
C1456      H2011   1.082       .  S
C1457      C1458   1.380       .  A
C1457      H1469   1.082       .  S
C1458      H1470   1.079       .  S
C1459      C1460   1.376       .  A
C1459      H1471   1.082       .  S
C1460      H1472   1.082       .  S
C1461      C3625   1.382       .  A
C1461      C3634   1.374       .  A
C1461      H1473   1.082       .  S
C1462      C3633   1.378   1_455  A
C1462      H3646   1.081   1_455  S
C1464      C3683   1.513   1_455  S
C1465      C1626   1.531       .  S
C1466      C1553   1.466       .  S
H1467      C1998   1.081       .  S
H1468      C1999   1.082       .  S
H1474      C3634   1.082       .  S
N1477      C1482   1.349       .  A
N1477      C1481   1.346       .  A
N1477      H1509   1.043       .  S
N1478      C1485   1.350       .  A
N1478      C1486   1.347       .  A
N1479      C1484   1.353       .  A
N1479      C1483   1.349       .  A
N1479      H1510   1.043       .  S
N1480      C1487   1.349       .  A
N1480      C1488   1.345       .  A
C1481      C1489   1.388       .  A
C1481      C1497   1.411       .  A
C1482      C1498   1.406       .  A
C1482      C1490   1.382       .  A
C1483      C1491   1.384       .  A
C1483      C1500   1.414       .  A
C1484      C1499   1.407       .  A
C1484      C1492   1.385       .  A
C1485      C1497   1.417       .  A
C1485      C1493   1.386       .  A
C1486      C1500   1.416       .  A
C1486      C1494   1.388       .  A
C1487      C3667   1.379       .  A
C1487      C1498   1.406       .  A
C1488      C1496   1.387       .  A
C1488      C1499   1.408       .  A
C1489      C1490   1.380       .  A
C1489      H1501   1.081       .  S
C1490      H1502   1.081       .  S
C1491      C1492   1.377       .  A
C1491      H1503   1.076       .  S
C1492      H1504   1.081       .  S
C1493      C1494   1.387       .  A
C1493      H1505   1.082       .  S
C1494      H1506   1.082       .  S
C1495      C3659   1.380       .  A
C1495      C3668   1.384       .  A
C1495      H1507   1.081       .  S
C1496      C3667   1.383       .  A
C1496      H3680   1.081       .  S
C1498      C3687   1.497       .  S
C1499      C1612   1.474       .  S
C1500      C1569   1.483       .  S
H1508      C3668   1.081       .  S
C1511      C1512   1.417       .  A
C1511      C4231   1.415       .  A
C1511      C3636   1.510       .  S
C1512      C2056   1.406       .  A
C1513      C2055   1.403   1_554  A
C1513      C1514   1.402       .  A
C1513      H1518   1.086       .  S
C1514      C1515   1.418       .  A
C1515      C3688   1.415       .  A
C1515      C3670   1.500       .  S
C1516      C4226   1.415   1_454  A
C1516      C3687   1.412       .  A
C1516      H1517   1.085       .  S
C1519      C1524   1.410       .  A
C1520      C1521   1.405       .  A
C1521      C2065   1.407   1_554  A
C1521      H1526   1.085       .  S
C1522      C2064   1.406       .  A
C1523      C2067   1.409       .  A
C1524      C2066   1.408   1_554  A
C1524      H1525   1.085       .  S
C1527      C1528   1.419       .  A
C1527      C2075   1.399       .  A
C1528      C4244   1.411       .  A
C1528      C3526   1.496       .  S
C1529      C4243   1.412   1_454  A
C1529      C3702   1.411   1_455  A
C1529      H1534   1.085       .  S
C1530      C3701   1.411       .  A
C1530      C1531   1.418       .  A
C1530      C3491   1.500       .  S
C1531      C1532   1.402       .  A
C1532      C2070   1.400   1_554  A
C1532      H1533   1.086       .  S
C1535      C1536   1.427       .  A
C1535      C1540   1.419       .  A
C1536      C1537   1.403       .  A
C1537      C2081   1.407   1_554  A
C1537      H1542   1.086       .  S
C1538      C2080   1.408       .  A
C1538      C1539   1.419       .  A
C1539      C2083   1.419       .  A
C1540      C2082   1.418   1_554  A
C1540      H1541   1.085       .  S
O1543      C1551   1.269       .  A
O1543     Co1563   1.896       .  S
O1544      C1552   1.271       .  A
O1544     Co1564   2.017       .  S
O1545      C1553   1.283       .  A
O1545     Co1565   2.021       .  S
O1546      C1554   1.277       .  A
O1546     Co1566   2.047       .  S
O1547      C1553   1.277       .  A
O1547     Co1564   1.917       .  S
O1548      C1554   1.266       .  A
O1548     Co1563   2.004       .  S
O1549      C1552   1.267       .  A
O1549     Co1566   2.025       .  S
O1550      C1551   1.295       .  A
O1550     Co1565   2.068       .  S
O1555      C1568   1.267       .  A
O1555     Co1563   2.001       .  S
O1556      C1569   1.235       .  A
O1556     Co1564   1.967       .  S
O1557      C1570   1.249       .  A
O1557     Co1565   1.980       .  S
O1558      C1571   1.268       .  A
O1558     Co1566   1.991       .  S
O1559      C1571   1.272       .  A
O1559     Co1564   1.999       .  S
O1560      C1570   1.251       .  A
O1560     Co1563   1.991       .  S
O1561      C1568   1.259       .  A
O1561     Co1566   1.971       .  S
O1562      C1569   1.253       .  A
O1562     Co1565   2.017       .  S
Co1563     O1567   1.945       .  S
Co1564     O1567   1.938       .  S
Co1565     O1567   2.248       .  S
Co1566     O1567   2.074       .  S
O1572      C1580   1.253       .  A
O1572     Co1592   1.991       .  S
O1573      C1581   1.274       .  A
O1574      C1582   1.254       .  A
O1574     Co1594   2.028       .  S
O1575      C1583   1.262       .  A
O1575     Co1595   1.977       .  S
O1576      C1582   1.237       .  A
O1576     Co1593   1.977       .  S
O1577      C1583   1.268       .  A
O1578      C1581   1.261       .  A
O1578     Co1595   1.960       .  S
O1579      C1580   1.251       .  A
O1579     Co1594   1.985       .  S
O1584      C1597   1.266       .  A
O1585      C1598   1.277       .  A
O1585     Co1593   1.908       .  S
O1586      C1599   1.299       .  A
O1586     Co1594   2.090       .  S
O1587      C1600   1.269       .  A
O1587     Co1595   2.034       .  S
O1588      C1600   1.272       .  A
O1589      C1599   1.265       .  A
O1589     Co1592   1.879       .  S
O1590      C1597   1.266       .  A
O1590     Co1595   2.003       .  S
O1591      C1598   1.288       .  A
O1591     Co1594   2.039       .  S
Co1592     O1596   1.942       .  S
Co1593     O1596   1.931       .  S
Co1594     O1596   2.250       .  S
O1601      C1609   1.247       .  A
O1601     Co1621   1.961       .  S
O1602      C1610   1.282       .  A
O1602     Co3794   2.037   1_455  S
O1603      C1611   1.253       .  A
O1603     Co1623   1.978       .  S
O1604      C1612   1.262       .  A
O1604     Co1624   1.968       .  S
O1605      C1611   1.260       .  A
O1605     Co1622   2.015       .  S
O1606      C1612   1.275       .  A
O1606     Co3793   2.018   1_455  S
O1607      C1610   1.264       .  A
O1607     Co1624   1.961       .  S
O1608      C1609   1.264       .  A
O1608     Co1623   2.021       .  S
O1613      C1626   1.267       .  A
O1613     Co3793   2.002   1_455  S
O1614      C1627   1.275       .  A
O1614     Co1622   1.888       .  S
O1615      C1628   1.263       .  A
O1615     Co1623   2.009       .  S
O1616      C1629   1.263       .  A
O1616     Co1624   2.007       .  S
O1617      C1629   1.264       .  A
O1617     Co3794   1.996   1_455  S
O1618      C1628   1.253       .  A
O1618     Co1621   1.953       .  S
O1619      C1626   1.272       .  A
O1619     Co1624   2.043       .  S
O1620      C1627   1.286       .  A
O1620     Co1623   2.055       .  S
Co1621     O3778   1.975       .  S
Co1621     O3785   1.948       .  S
Co1621     O1625   1.976       .  S
Co1622     O3774   2.044       .  S
Co1622     O3789   1.997       .  S
Co1622     O1625   1.973       .  S
Co1623     O1625   2.172       .  S
Co1624     O3797   2.080   1_455  S
O1625     Co3796   2.113       .  S
N1630      C1635   1.352       .  A
N1630      C1634   1.354       .  A
N1630      H1662   1.041       .  S
N1631      C1638   1.353       .  A
N1631      C1639   1.351       .  A
N1632      C1637   1.357       .  A
N1632      C1636   1.356       .  A
N1632      H1663   1.039       .  S
N1633      C1640   1.352       .  A
N1633      C1641   1.351       .  A
C1634      C1642   1.386       .  A
C1634      C1650   1.421       .  A
C1635      C1651   1.419       .  A
C1635      C1643   1.386       .  A
C1636      C1644   1.387       .  A
C1636      C1653   1.423       .  A
C1637      C1652   1.421       .  A
C1637      C1645   1.385       .  A
C1638      C1650   1.411       .  A
C1638      C1646   1.382       .  A
C1639      C1653   1.402       .  A
C1639      C1647   1.380       .  A
C1640      C1648   1.383       .  A
C1640      C1651   1.412       .  A
C1641      C1649   1.380       .  A
C1641      C1652   1.403       .  A
C1642      C1643   1.386       .  A
C1642      H1654   1.081       .  S
C1643      H1655   1.081       .  S
C1644      C1645   1.371       .  A
C1644      H1656   1.080       .  S
C1645      H1657   1.081       .  S
C1646      C1647   1.377       .  A
C1646      H1658   1.081       .  S
C1647      H1659   1.082       .  S
C1648      C1649   1.377       .  A
C1648      H1660   1.081       .  S
C1649      H1661   1.082       .  S
C1650      C2079   1.505       .  S
C1651      C1767   1.500       .  S
C1652      C2123   1.490       .  S
C1653      C2113   1.489       .  S
N1664      C1669   1.349       .  A
N1664      C1668   1.348       .  A
N1664      H1696   1.044       .  S
N1665      C1672   1.339       .  A
N1665      C1673   1.339       .  A
N1666      C1671   1.346       .  A
N1666      C1670   1.347       .  A
N1666      H1697   1.044       .  S
N1667      C1674   1.340       .  A
N1667      C1675   1.336       .  A
C1668      C1676   1.384       .  A
C1668      C1684   1.413       .  A
C1669      C1685   1.415       .  A
C1669      C1677   1.385       .  A
C1670      C1678   1.384       .  A
C1670      C1687   1.406       .  A
C1671      C1686   1.407       .  A
C1671      C1679   1.385       .  A
C1672      C1684   1.396       .  A
C1672      C1680   1.382       .  A
C1673      C1687   1.394       .  A
C1673      C1681   1.385       .  A
C1674      C1682   1.386       .  A
C1674      C1685   1.400       .  A
C1675      C1683   1.391       .  A
C1675      C1686   1.402       .  A
C1676      C1677   1.384       .  A
C1678      C1679   1.386       .  A
C1678      H1690   1.082       .  S
C1679      H1691   1.082       .  S
C1680      C1681   1.385       .  A
C1680      H1692   1.081       .  S
C1681      H1693   1.082       .  S
C1682      C1683   1.386       .  A
C1682      H1694   1.082       .  S
C1683      H1695   1.081       .  S
C1684      C1769   1.483       .  S
C1685      C2081   1.483       .  S
C1686      C2094   1.457       .  S
C1687      C2142   1.462       .  S
N1698      C1703   1.350       .  A
N1698      C1702   1.351       .  A
N1698      H1730   1.043       .  S
N1699      C1706   1.344       .  A
N1699      C1707   1.338       .  A
N1700      C1705   1.357       .  A
N1700      C1704   1.355       .  A
N1700      H1731   1.037       .  S
N1701      C1708   1.357       .  A
N1701      C1709   1.354       .  A
C1702      C1710   1.385       .  A
C1702      C1718   1.414       .  A
C1703      C1719   1.410       .  A
C1703      C1711   1.386       .  A
C1704      C1712   1.378       .  A
C1704      C1721   1.408       .  A
C1705      C1720   1.431       .  A
C1705      C1713   1.395       .  A
C1706      C1718   1.402       .  A
C1706      C1714   1.387       .  A
C1707      C1721   1.395       .  A
C1707      C1715   1.385       .  A
C1708      C1716   1.378       .  A
C1708      C1719   1.417       .  A
C1709      C1717   1.378       .  A
C1709      C1720   1.418       .  A
C1710      C1711   1.381       .  A
C1712      C1713   1.366       .  A
C1712      H1724   1.082       .  S
C1713      H1725   1.078       .  S
C1714      C1715   1.377       .  A
C1714      H1726   1.082       .  S
C1715      H1727   1.082       .  S
C1716      C1717   1.379       .  A
C1717      H1729   1.071       .  S
C1718      C2055   1.483       .  S
C1719      C1770   1.506       .  S
C1720      C2140   1.513       .  S
C1721      C2171   1.465       .  S
N1732      C1737   1.351       .  A
N1732      C1736   1.350       .  A
N1732      H1764   1.042       .  S
N1733      C1740   1.348       .  A
N1733      C1741   1.348       .  A
N1734      C1739   1.349       .  A
N1734      C1738   1.346       .  A
N1734      H1765   1.043       .  S
N1735      C1742   1.345       .  A
N1735      C1743   1.346       .  A
C1736      C1744   1.387       .  A
C1736      C1752   1.417       .  A
C1737      C1753   1.415       .  A
C1737      C1745   1.385       .  A
C1738      C1746   1.383       .  A
C1738      C1755   1.407       .  A
C1739      C1754   1.405       .  A
C1739      C1747   1.385       .  A
C1740      C1752   1.410       .  A
C1740      C1748   1.384       .  A
C1741      C1755   1.403       .  A
C1741      C1749   1.382       .  A
C1742      C1750   1.382       .  A
C1742      C1753   1.403       .  A
C1743      C1751   1.385       .  A
C1743      C1754   1.401       .  A
C1744      C1745   1.385       .  A
C1744      H1756   1.082       .  S
C1745      H1757   1.081       .  S
C1746      C1747   1.379       .  A
C1746      H1758   1.075       .  S
C1747      H1759   1.080       .  S
C1748      C1749   1.384       .  A
C1748      H1760   1.082       .  S
C1749      H1761   1.082       .  S
C1750      C1751   1.380       .  A
C1751      H1763   1.081       .  S
C1752      C2057   1.497       .  S
C1753      C1766   1.492       .  S
C1754      C2126   1.472       .  S
C1755      C2152   1.477       .  S
C1766      C1771   1.409       .  A
C1767      C1768   1.402       .  A
C1768      H1773   1.086       .  S
C1771      H1772   1.085       .  S
N1774      C1779   1.355       .  A
N1774      C1778   1.343       .  A
N1774      H1806   1.042       .  S
N1775      C1782   1.363       .  A
N1775      C1783   1.366       .  A
N1776      C1781   1.353       .  A
N1776      C1780   1.359       .  A
N1776      H1807   1.041       .  S
N1777      C1784   1.346       .  A
N1777      C1785   1.336       .  A
C1778      C1786   1.384       .  A
C1778      C1794   1.405       .  A
C1779      C1795   1.413       .  A
C1779      C1787   1.383       .  A
C1780      C1788   1.392       .  A
C1780      C1797   1.431       .  A
C1781      C1796   1.417       .  A
C1781      C1789   1.385       .  A
C1782      C1794   1.417       .  A
C1782      C1790   1.384       .  A
C1783      C1797   1.420       .  A
C1783      C1791   1.381       .  A
C1784      C1792   1.381       .  A
C1784      C1795   1.391       .  A
C1785      C1793   1.383       .  A
C1785      C1796   1.381       .  A
C1786      C1787   1.381       .  A
C1788      C1789   1.382       .  A
C1788      H1800   1.080       .  S
C1789      H1801   1.081       .  S
C1790      C1791   1.376       .  A
C1790      H1802   1.082       .  S
C1791      H1803   1.081       .  S
C1792      C1793   1.372       .  A
C1792      H1804   1.081       .  S
C1793      H1805   1.083       .  S
C1794      C2082   1.516       .  S
C1795      C2070   1.491       .  S
C1796      C2170   1.470       .  S
C1797      C2097   1.526       .  S
N1808      C1813   1.352       .  A
N1808      C1812   1.347       .  A
N1808      H1840   1.043       .  S
N1809      C1816   1.345       .  A
N1809      C1817   1.348       .  A
N1810      C1815   1.353       .  A
N1810      C1814   1.354       .  A
N1810      H1841   1.043       .  S
N1811      C1818   1.351       .  A
N1811      C1819   1.347       .  A
C1812      C1820   1.387       .  A
C1812      C1828   1.414       .  A
C1813      C1829   1.412       .  A
C1813      C1821   1.382       .  A
C1814      C1822   1.381       .  A
C1814      C1831   1.416       .  A
C1815      C1830   1.415       .  A
C1815      C1823   1.387       .  A
C1816      C1828   1.407       .  A
C1816      C1824   1.385       .  A
C1817      C1831   1.401       .  A
C1817      C1825   1.381       .  A
C1818      C1826   1.379       .  A
C1818      C1829   1.409       .  A
C1819      C1827   1.386       .  A
C1819      C1830   1.408       .  A
C1820      C1821   1.384       .  A
C1820      H1832   1.080       .  S
C1821      H1833   1.080       .  S
C1822      C1823   1.381       .  A
C1822      H1834   1.074       .  S
C1823      H1835   1.080       .  S
C1824      C1825   1.385       .  A
C1824      H1836   1.082       .  S
C1825      H1837   1.082       .  S
C1826      C1827   1.382       .  A
C1826      H1838   1.080       .  S
C1827      H1839   1.081       .  S
C1828      C2074   1.487       .  S
C1829      C2078   1.505       .  S
C1830      C2111   1.480       .  S
C1831      C2154   1.488       .  S
N1842      C1847   1.348       .  A
N1842      C1846   1.349       .  A
N1842      H1874   1.044       .  S
N1843      C1850   1.352       .  A
N1843      C1851   1.350       .  A
N1844      C1849   1.351       .  A
N1844      C1848   1.356       .  A
N1844      H1875   1.044       .  S
N1845      C1852   1.351       .  A
N1845      C1853   1.350       .  A
C1846      C1854   1.383       .  A
C1846      C1862   1.408       .  A
C1847      C1863   1.413       .  A
C1847      C1855   1.387       .  A
C1848      C1856   1.384       .  A
C1848      C1865   1.414       .  A
C1849      C1864   1.416       .  A
C1849      C1857   1.381       .  A
C1850      C1862   1.409       .  A
C1850      C4030   1.377       .  A
C1851      C1865   1.415       .  A
C1851      C1859   1.388       .  A
C1852      C1860   1.384       .  A
C1852      C1863   1.416       .  A
C1853      C1861   1.384       .  A
C1853      C1864   1.412       .  A
C1854      C1855   1.381       .  A
C1854      H1866   1.081       .  S
C1855      H1867   1.080       .  S
C1856      C1857   1.383       .  A
C1856      H1868   1.081       .  S
C1857      H1869   1.075       .  S
C1858      C4022   1.378       .  A
C1858      C4031   1.380       .  A
C1858      H1870   1.081       .  S
C1859      C4030   1.381       .  A
C1859      H4043   1.080       .  S
C1860      C1861   1.386       .  A
C1860      H1872   1.081       .  S
C1861      H1873   1.082       .  S
C1862      C4245   1.503   1_455  S
C1863      C2063   1.501       .  S
C1864      C2125   1.492       .  S
C1865      C2153   1.492       .  S
H1871      C4031   1.080       .  S
N1876      C1881   1.347       .  A
N1876      C1880   1.353       .  A
N1876      H1908   1.040       .  S
N1877      C1884   1.344       .  A
N1877      C1885   1.337       .  A
N1878      C1883   1.360       .  A
N1878      C1882   1.354       .  A
N1878      H1909   1.028       .  S
N1879      C1886   1.355       .  A
N1879      C1887   1.356       .  A
C1880      C1888   1.382       .  A
C1880      C1896   1.411       .  A
C1881      C1897   1.414       .  A
C1881      C1889   1.389       .  A
C1882      C1890   1.378       .  A
C1882      C1899   1.413       .  A
C1883      C1898   1.439       .  A
C1883      C1891   1.396       .  A
C1884      C1896   1.390       .  A
C1884      C1892   1.381       .  A
C1885      C1899   1.379       .  A
C1885      C1893   1.382       .  A
C1886      C4066   1.384       .  A
C1886      C1897   1.423       .  A
C1887      C1895   1.383       .  A
C1887      C1898   1.421       .  A
C1888      C1889   1.382       .  A
C1890      C1891   1.378       .  A
C1890      H1902   1.080       .  S
C1891      H1903   1.078       .  S
C1892      C1893   1.373       .  A
C1892      H1904   1.082       .  S
C1893      H1905   1.082       .  S
C1894      C4058   1.383       .  A
C1894      C4067   1.382       .  A
C1894      H1906   1.081       .  S
C1895      C4066   1.382       .  A
C1895      H4079   1.083       .  S
C1896      C2065   1.486       .  S
C1897      C4243   1.498   1_455  S
C1898      C2172   1.519       .  S
C1899      C2141   1.468       .  S
H1907      C4067   1.083       .  S
N1910      C1915   1.350       .  A
N1910      C1914   1.345       .  A
N1910      H1942   1.039       .  S
N1911      C1918   1.357       .  A
N1911      C1919   1.355       .  A
N1912      C1917   1.351       .  A
N1912      C1916   1.340       .  A
N1912      H1943   1.035       .  S
N1913      C1920   1.347       .  A
N1913      C1921   1.346       .  A
C1914      C1922   1.382       .  A
C1914      C1930   1.403       .  A
C1915      C1931   1.408       .  A
C1915      C1923   1.385       .  A
C1916      C1924   1.388       .  A
C1916      C1933   1.399       .  A
C1917      C1932   1.406       .  A
C1917      C1925   1.389       .  A
C1918      C1930   1.409       .  A
C1918      C1926   1.386       .  A
C1919      C1933   1.404       .  A
C1919      C1927   1.380       .  A
C1920      C1928   1.377       .  A
C1920      C1931   1.399       .  A
C1921      C1929   1.388       .  A
C1921      C1932   1.408       .  A
C1922      C1923   1.378       .  A
C1922      H1934   1.081       .  S
C1923      H1935   1.079       .  S
C1924      C1925   1.368       .  A
C1924      H1936   1.079       .  S
C1925      H1937   1.079       .  S
C1926      C1927   1.374       .  A
C1926      H1938   1.082       .  S
C1927      H1939   1.083       .  S
C1928      C1929   1.375       .  A
C1930      C1978   1.519       .  S
C1931      C2062   1.490       .  S
C1932      C2124   1.467       .  S
C1933      C2114   1.460       .  S
N1944      C1949   1.350       .  A
N1944      C1948   1.352       .  A
N1944      H1976   1.042       .  S
N1945      C1952   1.357       .  A
N1945      C1953   1.353       .  A
N1946      C1951   1.362       .  A
N1946      C1950   1.366       .  A
N1946      H1977   1.040       .  S
N1947      C1954   1.363       .  A
N1947      C1955   1.360       .  A
C1948      C1956   1.385       .  A
C1948      C1964   1.411       .  A
C1949      C1965   1.405       .  A
C1949      C1957   1.381       .  A
C1950      C1958   1.389       .  A
C1950      C1967   1.442       .  A
C1951      C1966   1.435       .  A
C1951      C1959   1.389       .  A
C1952      C1964   1.417       .  A
C1952      C1960   1.377       .  A
C1953      C1967   1.416       .  A
C1953      C1961   1.379       .  A
C1954      C1962   1.383       .  A
C1954      C1965   1.413       .  A
C1955      C1963   1.383       .  A
C1955      C1966   1.423       .  A
C1956      C1957   1.377       .  A
C1958      C1959   1.381       .  A
C1958      H1970   1.081       .  S
C1959      H1971   1.080       .  S
C1960      C1961   1.374       .  A
C1962      C1963   1.373       .  A
C1962      H1974   1.082       .  S
C1963      H1975   1.082       .  S
C1964      C2066   1.506       .  S
C1965      C1982   1.528       .  S
C1966      C2095   1.520       .  S
C1967      C2143   1.529       .  S
C1978      C1979   1.418       .  A
C1978      C1983   1.427       .  A
C1979      C1980   1.403       .  A
C1979      C2040   1.487       .  S
C1980      H1985   1.087       .  S
C1981      C1982   1.422       .  A
C1981      C2006   1.488       .  S
C1983      H1984   1.083       .  S
N1986      C1991   1.344       .  A
N1986      C1990   1.355       .  A
N1986      H2018   1.040       .  S
N1987      C1994   1.347       .  A
N1987      C1995   1.338       .  A
N1988      C1993   1.358       .  A
N1988      C1992   1.355       .  A
N1988      H2019   1.039       .  S
N1989      C1996   1.361       .  A
N1989      C1997   1.361       .  A
C1990      C1998   1.386       .  A
C1990      C2006   1.417       .  A
C1991      C2007   1.404       .  A
C1991      C1999   1.384       .  A
C1992      C2000   1.381       .  A
C1992      C2009   1.413       .  A
C1993      C2008   1.423       .  A
C1993      C2001   1.391       .  A
C1994      C2006   1.402       .  A
C1994      C2002   1.385       .  A
C1995      C2009   1.395       .  A
C1995      C2003   1.385       .  A
C1996      C4176   1.382   1_455  A
C1996      C2007   1.410       .  A
C1997      C2005   1.384       .  A
C1997      C2008   1.422       .  A
C1998      C1999   1.380       .  A
C2000      C2001   1.374       .  A
C2000      H2012   1.082       .  S
C2001      H2013   1.079       .  S
C2002      C2003   1.376       .  A
C2002      H2014   1.082       .  S
C2003      H2015   1.082       .  S
C2004      C4168   1.383       .  A
C2004      C4177   1.374       .  A
C2004      H2016   1.082       .  S
C2005      C4176   1.374   1_455  A
C2005      H4189   1.082   1_455  S
C2007      C4226   1.510   1_455  S
C2008      C2169   1.513       .  S
C2009      C2096   1.468       .  S
H2017      C4177   1.082       .  S
N2020      C2025   1.350       .  A
N2020      C2024   1.346       .  A
N2020      H2052   1.043       .  S
N2021      C2028   1.349       .  A
N2021      C2029   1.347       .  A
N2022      C2027   1.348       .  A
N2022      C2026   1.349       .  A
N2022      H2053   1.043       .  S
N2023      C2030   1.350       .  A
N2023      C2031   1.347       .  A
C2024      C2032   1.388       .  A
C2024      C2040   1.413       .  A
C2025      C2041   1.407       .  A
C2025      C2033   1.383       .  A
C2026      C2034   1.385       .  A
C2026      C2043   1.410       .  A
C2027      C2042   1.403       .  A
C2027      C2035   1.387       .  A
C2028      C2040   1.416       .  A
C2028      C2036   1.386       .  A
C2029      C2043   1.414       .  A
C2029      C2037   1.386       .  A
C2030      C4210   1.379       .  A
C2030      C2041   1.407       .  A
C2031      C2039   1.385       .  A
C2031      C2042   1.407       .  A
C2032      C2033   1.380       .  A
C2032      H2044   1.081       .  S
C2033      H2045   1.081       .  S
C2034      C2035   1.371       .  A
C2034      H2046   1.074       .  S
C2035      H2047   1.080       .  S
C2036      C2037   1.387       .  A
C2036      H2048   1.082       .  S
C2037      H2049   1.082       .  S
C2038      C4202   1.379       .  A
C2038      C4211   1.383       .  A
C2038      H2050   1.081       .  S
C2039      C4210   1.382       .  A
C2039      H4223   1.081       .  S
C2041      C4230   1.500       .  S
C2042      C2155   1.466       .  S
C2043      C2112   1.479       .  S
H2051      C4211   1.081       .  S
C2054      C2055   1.417       .  A
C2054      C3688   1.416   1_556  A
C2054      C4179   1.508       .  S
C2056      C2057   1.403       .  A
C2056      H2061   1.086       .  S
C2057      C2058   1.419       .  A
C2058      C4231   1.415       .  A
C2058      C4213   1.501       .  S
C2059      C3683   1.416   1_455  A
C2059      C4230   1.416       .  A
C2059      H2060   1.085       .  S
C2062      C2067   1.411       .  A
C2063      C2064   1.404       .  A
C2064      H2069   1.085       .  S
C2067      H2068   1.085       .  S
C2070      C2071   1.418       .  A
C2071      C3701   1.411   1_556  A
C2071      C4069   1.500       .  S
C2072      C3700   1.413   1_455  A
C2072      C4245   1.412   1_455  A
C2072      H2077   1.085       .  S
C2073      C4244   1.410       .  A
C2073      C2074   1.418       .  A
C2073      C4034   1.501       .  S
C2074      C2075   1.404       .  A
C2075      H2076   1.086       .  S
C2078      C2079   1.423       .  A
C2078      C2083   1.418       .  A
C2079      C2080   1.402       .  A
C2080      H2085   1.086       .  S
C2081      C2082   1.419       .  A
C2083      H2084   1.085       .  S
O2086      C2094   1.268       .  A
O2086     Co2106   1.885       .  S
O2087      C2095   1.257       .  A
O2087     Co2107   1.970       .  S
O2088      C2096   1.260       .  A
O2088     Co2108   1.998       .  S
O2089      C2097   1.277       .  A
O2089     Co2109   2.049       .  S
O2090      C2096   1.251       .  A
O2090     Co2107   1.959       .  S
O2091      C2097   1.267       .  A
O2091     Co2106   1.997       .  S
O2092      C2095   1.271       .  A
O2092     Co2109   2.042       .  S
O2093      C2094   1.290       .  A
O2093     Co2108   2.056       .  S
O2098      C2111   1.266       .  A
O2098     Co2106   2.007       .  S
O2099      C2112   1.247       .  A
O2099     Co2107   1.957       .  S
O2100      C2113   1.250       .  A
O2100     Co2108   1.977       .  S
O2101      C2114   1.272       .  A
O2101     Co2109   2.014       .  S
O2102      C2114   1.261       .  A
O2102     Co2107   1.950       .  S
O2103      C2113   1.252       .  A
O2103     Co2106   1.991       .  S
O2104      C2111   1.260       .  A
O2104     Co2109   1.982       .  S
O2105      C2112   1.270       .  A
O2105     Co2108   2.032       .  S
Co2106     O2110   1.948       .  S
Co2107     O2110   1.975       .  S
Co2108     O2110   2.188       .  S
Co2109     O2110   2.110       .  S
O2115      C2123   1.252       .  A
O2115     Co2135   1.989       .  S
O2116      C2124   1.273       .  A
O2117      C2125   1.254       .  A
O2117     Co2137   2.027       .  S
O2118      C2126   1.260       .  A
O2118     Co2138   1.975       .  S
O2119      C2125   1.237       .  A
O2119     Co2136   1.975       .  S
O2120      C2126   1.267       .  A
O2121      C2124   1.262       .  A
O2121     Co2138   1.959       .  S
O2122      C2123   1.252       .  A
O2122     Co2137   1.985       .  S
O2127      C2140   1.265       .  A
O2128      C2141   1.277       .  A
O2128     Co2136   1.908       .  S
O2129      C2142   1.297       .  A
O2129     Co2137   2.085       .  S
O2130      C2143   1.268       .  A
O2130     Co2138   2.028       .  S
O2131      C2143   1.273       .  A
O2132      C2142   1.265       .  A
O2132     Co2135   1.874       .  S
O2133      C2140   1.267       .  A
O2133     Co2138   2.007       .  S
O2134      C2141   1.287       .  A
O2134     Co2137   2.038       .  S
Co2135     O2139   1.943       .  S
Co2136     O2139   1.931       .  S
Co2137     O2139   2.244       .  S
O2144      C2152   1.246       .  A
O2144     Co2164   1.965       .  S
O2145      C2153   1.282       .  A
O2145     Co4337   2.049   1_455  S
O2146      C2154   1.254       .  A
O2146     Co2166   1.977       .  S
O2147      C2155   1.266       .  A
O2147     Co2167   1.995       .  S
O2148      C2154   1.259       .  A
O2148     Co2165   2.014       .  S
O2149      C2155   1.263       .  A
O2149     Co4336   1.971   1_455  S
O2150      C2153   1.263       .  A
O2150     Co2167   1.961       .  S
O2151      C2152   1.264       .  A
O2151     Co2166   2.022       .  S
O2156      C2169   1.249       .  A
O2156     Co4336   1.952   1_455  S
O2157      C2170   1.276       .  A
O2157     Co2165   1.889       .  S
O2158      C2171   1.261       .  A
O2158     Co2166   2.004       .  S
O2159      C2172   1.264       .  A
O2159     Co2167   2.012       .  S
O2160      C2172   1.264       .  A
O2160     Co4337   1.997   1_455  S
O2161      C2171   1.253       .  A
O2161     Co2164   1.952       .  S
O2162      C2169   1.275       .  A
O2162     Co2167   2.056       .  S
O2163      C2170   1.284       .  A
O2163     Co2166   2.050       .  S
Co2164     O4321   1.972       .  S
Co2164     O4328   1.951       .  S
Co2164     O2168   1.972       .  S
Co2165     O4317   2.048       .  S
Co2165     O4332   1.998       .  S
Co2165     O2168   1.972       .  S
Co2166     O2168   2.172       .  S
Co2167     O4340   2.114   1_455  S
O2168     Co4339   2.114       .  S
N2173      C2178   1.352       .  A
N2173      C2177   1.353       .  A
N2173      H2205   1.045       .  S
N2174      C2181   1.354       .  A
N2174      C2182   1.352       .  A
N2175      C2180   1.357       .  A
N2175      C2179   1.357       .  A
N2175      H2206   1.044       .  S
N2176      C2183   1.353       .  A
N2176      C2184   1.351       .  A
C2177      C2185   1.386       .  A
C2177      C2193   1.422       .  A
C2178      C2194   1.419       .  A
C2178      C2186   1.386       .  A
C2179      C2187   1.386       .  A
C2179      C2196   1.424       .  A
C2180      C2195   1.422       .  A
C2180      C2188   1.385       .  A
C2181      C2193   1.413       .  A
C2181      C2189   1.381       .  A
C2182      C2196   1.405       .  A
C2182      C2190   1.380       .  A
C2183      C2191   1.383       .  A
C2183      C2194   1.413       .  A
C2184      C2192   1.380       .  A
C2184      C2195   1.404       .  A
C2185      C2186   1.386       .  A
C2185      H2197   1.081       .  S
C2186      H2198   1.081       .  S
C2187      C2188   1.372       .  A
C2187      H2199   1.080       .  S
C2188      H2200   1.080       .  S
C2189      C2190   1.377       .  A
C2189      H2201   1.081       .  S
C2190      H2202   1.082       .  S
C2191      C2192   1.377       .  A
C2191      H2203   1.081       .  S
C2192      H2204   1.081       .  S
C2193      C2622   1.507       .  S
C2194      C2310   1.502       .  S
C2195      C2666   1.492       .  S
C2196      C2656   1.494       .  S
N2207      C2212   1.348       .  A
N2207      C2211   1.348       .  A
N2207      H2239   1.044       .  S
N2208      C2215   1.339       .  A
N2208      C2216   1.340       .  A
N2209      C2214   1.346       .  A
N2209      C2213   1.348       .  A
N2209      H2240   1.045       .  S
N2210      C2217   1.339       .  A
N2210      C2218   1.336       .  A
C2211      C2219   1.384       .  A
C2211      C2227   1.411       .  A
C2212      C2228   1.414       .  A
C2212      C2220   1.385       .  A
C2213      C2221   1.383       .  A
C2213      C2230   1.406       .  A
C2214      C2229   1.407       .  A
C2214      C2222   1.386       .  A
C2215      C2227   1.397       .  A
C2215      C2223   1.382       .  A
C2216      C2230   1.393       .  A
C2216      C2224   1.384       .  A
C2217      C2225   1.386       .  A
C2217      C2228   1.400       .  A
C2218      C2226   1.391       .  A
C2218      C2229   1.402       .  A
C2219      C2220   1.384       .  A
C2219      H2774   1.081       .  S
C2220      H2775   1.080       .  S
C2221      C2222   1.387       .  A
C2221      H2233   1.082       .  S
C2222      H2234   1.082       .  S
C2223      C2224   1.385       .  A
C2223      H2235   1.081       .  S
C2224      H2236   1.082       .  S
C2225      C2226   1.386       .  A
C2225      H2237   1.082       .  S
C2226      H2238   1.081       .  S
C2227      C2312   1.485       .  S
C2228      C2624   1.480       .  S
C2229      C2637   1.456       .  S
C2230      C2685   1.467       .  S
H2231      C2762   1.081       .  S
H2232      C2763   1.081       .  S
N2241      C2246   1.350       .  A
N2241      C2245   1.352       .  A
N2241      H2273   1.043       .  S
N2242      C2249   1.346       .  A
N2242      C2250   1.340       .  A
N2243      C2248   1.357       .  A
N2243      C2247   1.356       .  A
N2243      H2274   1.035       .  S
N2244      C2251   1.358       .  A
N2244      C2252   1.353       .  A
C2245      C2253   1.385       .  A
C2245      C2261   1.415       .  A
C2246      C2262   1.411       .  A
C2246      C2254   1.385       .  A
C2247      C2255   1.378       .  A
C2247      C2264   1.409       .  A
C2248      C2263   1.432       .  A
C2248      C2256   1.397       .  A
C2249      C2261   1.404       .  A
C2249      C2257   1.386       .  A
C2250      C2264   1.398       .  A
C2250      C2258   1.385       .  A
C2251      C2259   1.380       .  A
C2251      C2262   1.418       .  A
C2252      C2260   1.378       .  A
C2252      C2263   1.419       .  A
C2253      C2254   1.381       .  A
C2253      H2808   1.081       .  S
C2254      H2809   1.081       .  S
C2255      C2256   1.365       .  A
C2255      H2267   1.082       .  S
C2256      H2268   1.077       .  S
C2257      C2258   1.379       .  A
C2257      H2269   1.082       .  S
C2258      H2270   1.082       .  S
C2259      C2260   1.380       .  A
C2259      H3357   1.082       .  S
C2260      H2272   1.069       .  S
C2261      C2598   1.486       .  S
C2262      C2313   1.507       .  S
C2263      C2683   1.512       .  S
C2264      C2714   1.470       .  S
H2265      C2796   1.081       .  S
H2266      C2797   1.081       .  S
H2271      C3345   1.080       .  S
N2275      C2280   1.351       .  A
N2275      C2279   1.351       .  A
N2275      H2307   1.041       .  S
N2276      C2283   1.348       .  A
N2276      C2284   1.347       .  A
N2277      C2282   1.351       .  A
N2277      C2281   1.346       .  A
N2277      H2308   1.043       .  S
N2278      C2285   1.346       .  A
N2278      C2286   1.347       .  A
C2279      C2287   1.387       .  A
C2279      C2295   1.418       .  A
C2280      C2296   1.416       .  A
C2280      C2288   1.386       .  A
C2281      C2289   1.383       .  A
C2281      C2298   1.408       .  A
C2282      C2297   1.405       .  A
C2282      C2290   1.383       .  A
C2283      C2295   1.409       .  A
C2283      C2291   1.384       .  A
C2284      C2298   1.403       .  A
C2284      C2292   1.383       .  A
C2285      C2293   1.381       .  A
C2285      C2296   1.403       .  A
C2286      C2294   1.384       .  A
C2286      C2297   1.401       .  A
C2287      C2288   1.384       .  A
C2287      H2299   1.081       .  S
C2288      H2300   1.081       .  S
C2289      C2290   1.379       .  A
C2289      H2301   1.074       .  S
C2290      H2302   1.081       .  S
C2291      C2292   1.383       .  A
C2291      H2303   1.081       .  S
C2292      H2304   1.082       .  S
C2293      C2294   1.379       .  A
C2293      H3391   1.081       .  S
C2294      H2306   1.081       .  S
C2295      C2600   1.496       .  S
C2296      C2309   1.492       .  S
C2297      C2669   1.477       .  S
C2298      C2695   1.475       .  S
H2305      C3379   1.081       .  S
C2309      C3396   1.422   1_545  A
C2309      C2314   1.410       .  A
C2310      C3395   1.421       .  A
C2310      C2311   1.403       .  A
C2311      C2855   1.408   1_554  A
C2311      H2316   1.086       .  S
C2312      C2854   1.407       .  A
C2312      C3399   1.420       .  A
C2313      C3398   1.421   1_545  A
C2313      C2857   1.408       .  A
C2314      C2856   1.408   1_554  A
C2314      H2315   1.085       .  S
N2317      C2322   1.355       .  A
N2317      C2321   1.341       .  A
N2317      H2349   1.043       .  S
N2318      C2325   1.364       .  A
N2318      C2326   1.366       .  A
N2319      C2324   1.353       .  A
N2319      C2323   1.359       .  A
N2319      H2350   1.042       .  S
N2320      C2327   1.347       .  A
N2320      C2328   1.336       .  A
C2321      C2329   1.385       .  A
C2321      C2337   1.404       .  A
C2322      C2338   1.413       .  A
C2322      C2330   1.383       .  A
C2323      C2331   1.392       .  A
C2323      C2340   1.431       .  A
C2324      C2339   1.418       .  A
C2324      C2332   1.385       .  A
C2325      C2337   1.419       .  A
C2325      C2333   1.384       .  A
C2326      C2340   1.422       .  A
C2326      C2334   1.381       .  A
C2327      C2335   1.380       .  A
C2327      C2338   1.394       .  A
C2328      C2336   1.383       .  A
C2328      C2339   1.383       .  A
C2329      C2330   1.381       .  A
C2329      H2884   1.081       .  S
C2330      H2885   1.080       .  S
C2331      C2332   1.381       .  A
C2331      H2343   1.079       .  S
C2332      H2344   1.081       .  S
C2333      C2334   1.376       .  A
C2333      H2345   1.082       .  S
C2334      H2346   1.081       .  S
C2335      C2336   1.373       .  A
C2335      H2347   1.081       .  S
C2336      H2348   1.083       .  S
C2337      C2625   1.515       .  S
C2338      C2613   1.494       .  S
C2339      C2713   1.471       .  S
C2340      C2640   1.527       .  S
H2341      C2872   1.081       .  S
H2342      C2873   1.080       .  S
N2351      C2356   1.353       .  A
N2351      C2355   1.348       .  A
N2351      H2383   1.043       .  S
N2352      C2359   1.345       .  A
N2352      C2360   1.349       .  A
N2353      C2358   1.352       .  A
N2353      C2357   1.354       .  A
N2353      H2384   1.042       .  S
N2354      C2361   1.351       .  A
N2354      C2362   1.347       .  A
C2355      C2363   1.387       .  A
C2355      C2371   1.415       .  A
C2356      C2372   1.413       .  A
C2356      C2364   1.383       .  A
C2357      C2365   1.381       .  A
C2357      C2374   1.416       .  A
C2358      C2373   1.414       .  A
C2358      C2366   1.387       .  A
C2359      C2371   1.409       .  A
C2359      C2367   1.385       .  A
C2360      C2374   1.402       .  A
C2360      C2368   1.382       .  A
C2361      C2369   1.379       .  A
C2361      C2372   1.409       .  A
C2362      C2370   1.386       .  A
C2362      C2373   1.408       .  A
C2363      C2364   1.384       .  A
C2363      H2375   1.080       .  S
C2364      H2376   1.081       .  S
C2365      C2366   1.381       .  A
C2365      H2377   1.075       .  S
C2366      H2378   1.081       .  S
C2367      C2368   1.385       .  A
C2367      H2379   1.082       .  S
C2368      H2380   1.081       .  S
C2369      C2370   1.381       .  A
C2369      H2381   1.080       .  S
C2370      H2382   1.081       .  S
C2371      C2617   1.488       .  S
C2372      C2621   1.505       .  S
C2373      C2654   1.479       .  S
C2374      C2697   1.488       .  S
N2385      C2390   1.348       .  A
N2385      C2389   1.350       .  A
N2385      H2417   1.043       .  S
N2386      C2393   1.350       .  A
N2386      C2394   1.347       .  A
N2387      C2392   1.352       .  A
N2387      C2391   1.355       .  A
N2387      H2418   1.043       .  S
N2388      C2395   1.351       .  A
N2388      C2396   1.351       .  A
C2389      C2397   1.383       .  A
C2389      C2405   1.409       .  A
C2390      C2406   1.414       .  A
C2390      C2398   1.387       .  A
C2391      C2399   1.385       .  A
C2391      C2408   1.414       .  A
C2392      C2407   1.415       .  A
C2392      C2400   1.381       .  A
C2393      C2405   1.405       .  A
C2394      C2408   1.413       .  A
C2394      C2402   1.390       .  A
C2395      C2403   1.383       .  A
C2395      C2406   1.415       .  A
C2396      C2404   1.383       .  A
C2396      C2407   1.411       .  A
C2397      C2398   1.381       .  A
C2397      H2409   1.080       .  S
C2398      H2410   1.080       .  S
C2399      C2400   1.384       .  A
C2399      H2411   1.081       .  S
C2400      H2412   1.077       .  S
C2401      H2413   1.081       .  S
C2403      C2404   1.385       .  A
C2403      H2415   1.081       .  S
C2404      H2416   1.081       .  S
C2406      C2606   1.501       .  S
C2407      C2668   1.496       .  S
C2408      C2696   1.484       .  S
N2419      C2424   1.347       .  A
N2419      C2423   1.354       .  A
N2419      H2451   1.043       .  S
N2420      C2427   1.345       .  A
N2420      C2428   1.337       .  A
N2421      C2426   1.360       .  A
N2421      C2425   1.354       .  A
N2421      H2452   1.038       .  S
N2422      C2429   1.356       .  A
N2422      C2430   1.357       .  A
C2423      C2431   1.382       .  A
C2423      C2439   1.412       .  A
C2424      C2440   1.415       .  A
C2424      C2432   1.389       .  A
C2425      C2433   1.377       .  A
C2425      C2442   1.414       .  A
C2426      C2441   1.442       .  A
C2426      C2434   1.398       .  A
C2427      C2439   1.391       .  A
C2427      C2435   1.380       .  A
C2428      C2442   1.380       .  A
C2428      C2436   1.382       .  A
C2429      C2440   1.423       .  A
C2430      C2438   1.384       .  A
C2430      C2441   1.424       .  A
C2431      C2432   1.382       .  A
C2431      H2986   1.080       .  S
C2432      H2987   1.081       .  S
C2433      C2434   1.376       .  A
C2433      H2445   1.080       .  S
C2434      H2446   1.078       .  S
C2435      C2436   1.373       .  A
C2435      H2447   1.081       .  S
C2436      H2448   1.082       .  S
C2437      H2449   1.081       .  S
C2439      C2608   1.488       .  S
C2441      C2715   1.522       .  S
C2442      C2684   1.469       .  S
H2443      C2974   1.080       .  S
H2444      C2975   1.081       .  S
N2453      C2458   1.348       .  A
N2453      C2457   1.343       .  A
N2453      H2485   1.056       .  S
N2454      C2461   1.356       .  A
N2454      C2462   1.355       .  A
N2455      C2460   1.347       .  A
N2455      C2459   1.339       .  A
N2455      H2486   1.062       .  S
N2456      C2463   1.348       .  A
N2456      C2464   1.346       .  A
C2457      C2465   1.383       .  A
C2457      C2473   1.404       .  A
C2458      C2474   1.409       .  A
C2458      C2466   1.385       .  A
C2459      C2467   1.386       .  A
C2459      C2476   1.399       .  A
C2460      C2475   1.406       .  A
C2460      C2468   1.389       .  A
C2461      C2473   1.408       .  A
C2461      C2469   1.385       .  A
C2462      C2476   1.402       .  A
C2462      C2470   1.380       .  A
C2463      C2471   1.377       .  A
C2463      C2474   1.399       .  A
C2464      C2472   1.388       .  A
C2464      C2475   1.408       .  A
C2465      C2466   1.378       .  A
C2465      H2477   1.081       .  S
C2466      H2478   1.079       .  S
C2467      C2468   1.364       .  A
C2467      H2479   1.078       .  S
C2468      H2480   1.078       .  S
C2469      C2470   1.374       .  A
C2469      H2481   1.082       .  S
C2470      H2482   1.083       .  S
C2471      C2472   1.375       .  A
C2471      H3569   1.081       .  S
C2472      H3570   1.080       .  S
C2473      C2521   1.518       .  S
C2474      C2605   1.488       .  S
C2475      C2667   1.466       .  S
C2476      C2657   1.462       .  S
H2483      C3557   1.082       .  S
H2484      C3558   1.080       .  S
N2487      C2492   1.350       .  A
N2487      C2491   1.353       .  A
N2487      H2519   1.041       .  S
N2488      C2495   1.357       .  A
N2488      C2496   1.354       .  A
N2489      C2494   1.363       .  A
N2489      C2493   1.366       .  A
N2489      H2520   1.041       .  S
N2490      C2497   1.364       .  A
N2490      C2498   1.360       .  A
C2491      C2499   1.385       .  A
C2491      C2507   1.411       .  A
C2492      C2508   1.405       .  A
C2492      C2500   1.381       .  A
C2493      C2501   1.389       .  A
C2493      C2510   1.442       .  A
C2494      C2509   1.435       .  A
C2494      C2502   1.388       .  A
C2495      C2507   1.417       .  A
C2495      C2503   1.376       .  A
C2496      C2510   1.419       .  A
C2496      C2504   1.379       .  A
C2497      C2505   1.382       .  A
C2497      C2508   1.413       .  A
C2498      C2506   1.383       .  A
C2498      C2509   1.424       .  A
C2499      C2500   1.376       .  A
C2499      H3054   1.080       .  S
C2500      H3055   1.081       .  S
C2501      C2502   1.381       .  A
C2501      H2513   1.081       .  S
C2502      H2514   1.080       .  S
C2503      C2504   1.376       .  A
C2503      H3601   1.079       .  S
C2504      H3602   1.071       .  S
C2505      C2506   1.372       .  A
C2505      H2517   1.082       .  S
C2506      H2518   1.082       .  S
C2507      C2609   1.508       .  S
C2508      C2525   1.527       .  S
C2509      C2638   1.522       .  S
C2510      C2686   1.533       .  S
H2511      C3042   1.080       .  S
H2512      C3043   1.081       .  S
H2515      C3589   1.081       .  S
H2516      C3590   1.072       .  S
C2521      C2522   1.417       .  A
C2521      C2526   1.425       .  A
C2522      C2523   1.403       .  A
C2522      C2583   1.488       .  S
C2523      C3067   1.405   1_554  A
C2523      H2528   1.087       .  S
C2524      C3066   1.404       .  A
C2524      C2525   1.424       .  A
C2524      C2549   1.488       .  S
C2525      C3069   1.423       .  A
C2526      C3068   1.423   1_554  A
C2526      H2527   1.084       .  S
N2529      C2534   1.343       .  A
N2529      C2533   1.355       .  A
N2529      H2561   1.040       .  S
N2530      C2537   1.347       .  A
N2530      C2538   1.337       .  A
N2531      C2536   1.363       .  A
N2531      C2535   1.359       .  A
N2531      H2562   1.039       .  S
N2532      C2539   1.362       .  A
N2532      C2540   1.364       .  A
C2533      C2541   1.386       .  A
C2533      C2549   1.418       .  A
C2534      C2550   1.405       .  A
C2534      C2542   1.384       .  A
C2535      C2543   1.380       .  A
C2535      C2552   1.419       .  A
C2536      C2551   1.436       .  A
C2536      C2544   1.393       .  A
C2537      C2549   1.403       .  A
C2537      C2545   1.385       .  A
C2538      C2552   1.397       .  A
C2538      C2546   1.387       .  A
C2539      C2550   1.415       .  A
C2540      C2548   1.381       .  A
C2540      C2551   1.421       .  A
C2541      C2542   1.381       .  A
C2541      H3096   1.081       .  S
C2542      H3097   1.082       .  S
C2543      C2544   1.376       .  A
C2543      H2555   1.082       .  S
C2544      H2556   1.078       .  S
C2545      C2546   1.377       .  A
C2545      H2557   1.082       .  S
C2546      H2558   1.082       .  S
C2547      H2559   1.082       .  S
C2551      C2712   1.529       .  S
C2552      C2639   1.473       .  S
H2553      C3084   1.081       .  S
H2554      C3085   1.082       .  S
N2563      C2568   1.348       .  A
N2563      C2567   1.346       .  A
N2563      H2595   1.043       .  S
N2564      C2571   1.350       .  A
N2564      C2572   1.347       .  A
N2565      C2570   1.353       .  A
N2565      C2569   1.350       .  A
N2565      H2596   1.043       .  S
N2566      C2573   1.350       .  A
N2566      C2574   1.347       .  A
C2567      C2575   1.388       .  A
C2567      C2583   1.411       .  A
C2568      C2584   1.407       .  A
C2568      C2576   1.383       .  A
C2569      C2577   1.386       .  A
C2569      C2586   1.415       .  A
C2570      C2585   1.406       .  A
C2570      C2578   1.384       .  A
C2571      C2583   1.417       .  A
C2571      C2579   1.386       .  A
C2572      C2586   1.416       .  A
C2572      C2580   1.388       .  A
C2573      C2584   1.410       .  A
C2574      C2582   1.386       .  A
C2574      C2585   1.410       .  A
C2575      C2576   1.381       .  A
C2575      H2587   1.081       .  S
C2576      H2588   1.081       .  S
C2577      C2578   1.376       .  A
C2577      H2589   1.076       .  S
C2578      H2590   1.081       .  S
C2579      C2580   1.387       .  A
C2579      H2591   1.082       .  S
C2580      H2592   1.082       .  S
C2581      H2593   1.081       .  S
C2585      C2698   1.479       .  S
C2586      C2655   1.482       .  S
C2597      C2598   1.420       .  A
C2598      C3142   1.405       .  A
C2599      C3141   1.404   1_554  A
C2599      C2600   1.401       .  A
C2599      H2604   1.086       .  S
C2600      C2601   1.417   1_655  A
C2602      H2603   1.085       .  S
C2605      C3692   1.416   1_545  A
C2605      C2610   1.410       .  A
C2606      C3691   1.416       .  A
C2606      C2607   1.405       .  A
C2607      C3151   1.406   1_554  A
C2607      H2612   1.085       .  S
C2608      C3150   1.406       .  A
C2608      C3695   1.421       .  A
C2609      C3694   1.424   1_545  A
C2609      C3153   1.407       .  A
C2610      C3152   1.406   1_554  A
C2610      H2611   1.085       .  S
C2613      C2614   1.419       .  A
C2613      C3161   1.400       .  A
C2615      H2620   1.085       .  S
C2616      C2617   1.418       .  A
C2617      C2618   1.404       .  A
C2618      C3156   1.400   1_554  A
C2618      H2619   1.086       .  S
C2621      C2622   1.424       .  A
C2621      C2626   1.418       .  A
C2622      C2623   1.402       .  A
C2623      C3167   1.409   1_554  A
C2623      H2628   1.086       .  S
C2624      C3166   1.406       .  A
C2624      C2625   1.417       .  A
C2625      C3169   1.418       .  A
C2626      C3168   1.420   1_554  A
C2626      H2627   1.085       .  S
O2629      C2637   1.267       .  A
O2629     Co2649   1.883       .  S
O2630      C2638   1.257       .  A
O2630     Co2650   1.969       .  S
O2631      C2639   1.260       .  A
O2631     Co2651   1.999       .  S
O2632      C2640   1.277       .  A
O2632     Co2652   2.048       .  S
O2633      C2639   1.252       .  A
O2633     Co2650   1.965       .  S
O2634      C2640   1.266       .  A
O2634     Co2649   1.998       .  S
O2635      C2638   1.272       .  A
O2635     Co2652   2.048       .  S
O2636      C2637   1.290       .  A
O2636     Co2651   2.057       .  S
O2641      C2654   1.265       .  A
O2641     Co2649   2.005       .  S
O2642      C2655   1.249       .  A
O2642     Co2650   1.955       .  S
O2643      C2656   1.251       .  A
O2643     Co2651   1.984       .  S
O2644      C2657   1.271       .  A
O2644     Co2652   2.012       .  S
O2645      C2657   1.262       .  A
O2645     Co2650   1.957       .  S
O2646      C2656   1.252       .  A
O2646     Co2649   1.993       .  S
O2647      C2654   1.260       .  A
O2647     Co2652   1.983       .  S
O2648      C2655   1.271       .  A
O2648     Co2651   2.035       .  S
Co2649     O2653   1.949       .  S
Co2650     O2653   1.980       .  S
Co2651     O2653   2.188       .  S
Co2652     O2653   2.111       .  S
O2658      C2666   1.251       .  A
O2658     Co2678   1.989       .  S
O2659      C2667   1.273       .  A
O2659     Co3765   1.997   1_545  S
O2660      C2668   1.255       .  A
O2660     Co2680   2.030       .  S
O2661      C2669   1.261       .  A
O2661     Co2681   1.977       .  S
O2662      C2668   1.238       .  A
O2662     Co2679   1.980       .  S
O2663      C2669   1.268       .  A
O2663     Co3764   2.010   1_545  S
O2664      C2667   1.260       .  A
O2664     Co2681   1.958       .  S
O2665      C2666   1.252       .  A
O2665     Co2680   1.988       .  S
O2670      C2683   1.265       .  A
O2670     Co3764   2.007   1_545  S
O2671      C2684   1.276       .  A
O2671     Co2679   1.905       .  S
O2672      C2685   1.298       .  A
O2672     Co2680   2.087       .  S
O2673      C2686   1.269       .  A
O2673     Co2681   2.035       .  S
O2674      C2686   1.272       .  A
O2674     Co3765   2.016   1_545  S
O2675      C2685   1.267       .  A
O2675     Co2678   1.882       .  S
O2676      C2683   1.265       .  A
O2676     Co2681   2.000       .  S
O2677      C2684   1.288       .  A
O2677     Co2680   2.043       .  S
Co2678     O3749   2.008       .  S
Co2678     O3756   2.008       .  S
Co2678     O2682   1.945       .  S
Co2679     O3745   1.997       .  S
Co2679     O3760   2.017       .  S
Co2679     O2682   1.936       .  S
Co2680     O2682   2.250       .  S
Co2681     O3768   2.079   1_545  S
O2682     Co3767   2.080       .  S
O2687      C2695   1.245       .  A
O2687     Co2707   1.960       .  S
O2688      C2696   1.283       .  A
O2689      C2697   1.254       .  A
O2689     Co2709   1.980       .  S
O2690      C2698   1.262       .  A
O2690     Co2710   1.975       .  S
O2691      C2697   1.259       .  A
O2691     Co2708   2.012       .  S
O2692      C2698   1.277       .  A
O2693      C2696   1.263       .  A
O2693     Co2710   1.953       .  S
O2694      C2695   1.264       .  A
O2694     Co2709   2.023       .  S
O2699      C2712   1.265       .  A
O2700      C2713   1.276       .  A
O2700     Co2708   1.889       .  S
O2701      C2714   1.262       .  A
O2701     Co2709   2.008       .  S
O2702      C2715   1.264       .  A
O2702     Co2710   2.011       .  S
O2703      C2715   1.264       .  A
O2704      C2714   1.254       .  A
O2704     Co2707   1.956       .  S
O2705      C2712   1.271       .  A
O2705     Co2710   2.037       .  S
O2706      C2713   1.284       .  A
O2706     Co2709   2.050       .  S
Co2707     O2711   1.974       .  S
Co2708     O2711   1.974       .  S
Co2709     O2711   2.173       .  S
N2716      C2721   1.352       .  A
N2716      C2720   1.354       .  A
N2716      H2748   1.044       .  S
N2717      C2724   1.353       .  A
N2717      C2725   1.350       .  A
N2718      C2723   1.358       .  A
N2718      C2722   1.356       .  A
N2718      H2749   1.044       .  S
N2719      C2726   1.353       .  A
N2719      C2727   1.352       .  A
C2720      C2728   1.385       .  A
C2720      C2736   1.421       .  A
C2721      C2737   1.419       .  A
C2721      C2729   1.385       .  A
C2722      C2730   1.387       .  A
C2722      C2739   1.423       .  A
C2723      C2738   1.422       .  A
C2723      C2731   1.385       .  A
C2724      C2736   1.412       .  A
C2724      C2732   1.382       .  A
C2725      C2739   1.403       .  A
C2725      C2733   1.381       .  A
C2726      C2734   1.383       .  A
C2726      C2737   1.413       .  A
C2727      C2735   1.380       .  A
C2727      C2738   1.404       .  A
C2728      C2729   1.385       .  A
C2728      H2740   1.081       .  S
C2729      H2741   1.081       .  S
C2730      C2731   1.371       .  A
C2730      H2742   1.080       .  S
C2731      H2743   1.080       .  S
C2732      C2733   1.379       .  A
C2732      H2744   1.081       .  S
C2733      H2745   1.082       .  S
C2734      C2735   1.379       .  A
C2734      H2746   1.081       .  S
C2735      H2747   1.081       .  S
C2736      C3165   1.505       .  S
C2737      C2853   1.502       .  S
C2738      C3209   1.496       .  S
C2739      C3199   1.489       .  S
N2750      C2755   1.347       .  A
N2750      C2754   1.349       .  A
N2750      H2782   1.043       .  S
N2751      C2758   1.340       .  A
N2751      C2759   1.339       .  A
N2752      C2757   1.347       .  A
N2752      C2756   1.347       .  A
N2752      H2783   1.044       .  S
N2753      C2760   1.340       .  A
N2753      C2761   1.337       .  A
C2754      C2762   1.384       .  A
C2754      C2770   1.411       .  A
C2755      C2771   1.414       .  A
C2755      C2763   1.385       .  A
C2756      C2764   1.384       .  A
C2756      C2773   1.407       .  A
C2757      C2772   1.408       .  A
C2757      C2765   1.385       .  A
C2758      C2770   1.399       .  A
C2758      C2766   1.382       .  A
C2759      C2773   1.395       .  A
C2759      C2767   1.385       .  A
C2760      C2768   1.386       .  A
C2760      C2771   1.402       .  A
C2761      C2769   1.390       .  A
C2761      C2772   1.403       .  A
C2762      C2763   1.383       .  A
C2764      C2765   1.386       .  A
C2764      H2776   1.082       .  S
C2765      H2777   1.082       .  S
C2766      C2767   1.385       .  A
C2766      H2778   1.081       .  S
C2767      H2779   1.082       .  S
C2768      C2769   1.387       .  A
C2768      H2780   1.082       .  S
C2769      H2781   1.081       .  S
C2770      C2855   1.488       .  S
C2771      C3167   1.482       .  S
C2772      C3180   1.459       .  S
C2773      C3228   1.465       .  S
N2784      C2789   1.350       .  A
N2784      C2788   1.351       .  A
N2784      H2816   1.043       .  S
N2785      C2792   1.344       .  A
N2785      C2793   1.338       .  A
N2786      C2791   1.358       .  A
N2786      C2790   1.356       .  A
N2786      H2817   1.035       .  S
N2787      C2794   1.357       .  A
N2787      C2795   1.354       .  A
C2788      C2796   1.385       .  A
C2788      C2804   1.414       .  A
C2789      C2805   1.412       .  A
C2789      C2797   1.386       .  A
C2790      C2798   1.377       .  A
C2790      C2807   1.410       .  A
C2791      C2806   1.434       .  A
C2791      C2799   1.397       .  A
C2792      C2804   1.401       .  A
C2792      C2800   1.387       .  A
C2793      C2807   1.395       .  A
C2793      C2801   1.386       .  A
C2794      C2802   1.380       .  A
C2794      C2805   1.418       .  A
C2795      C2803   1.380       .  A
C2795      C2806   1.418       .  A
C2796      C2797   1.382       .  A
C2798      C2799   1.366       .  A
C2798      H2810   1.082       .  S
C2799      H2811   1.077       .  S
C2800      C2801   1.378       .  A
C2800      H2812   1.082       .  S
C2801      H2813   1.082       .  S
C2802      C2803   1.380       .  A
C2802      H3900   1.082       .  S
C2803      H2815   1.073       .  S
C2804      C3141   1.481       .  S
C2805      C2856   1.506       .  S
C2806      C3226   1.514       .  S
C2807      C3257   1.466       .  S
H2814      C3888   1.081       .  S
N2818      C2823   1.351       .  A
N2818      C2822   1.351       .  A
N2818      H2850   1.041       .  S
N2819      C2826   1.348       .  A
N2819      C2827   1.348       .  A
N2820      C2825   1.351       .  A
N2820      C2824   1.346       .  A
N2820      H2851   1.042       .  S
N2821      C2828   1.345       .  A
N2821      C2829   1.345       .  A
C2822      C2830   1.387       .  A
C2822      C2838   1.417       .  A
C2823      C2839   1.415       .  A
C2823      C2831   1.385       .  A
C2824      C2832   1.383       .  A
C2824      C2841   1.407       .  A
C2825      C2840   1.406       .  A
C2825      C2833   1.384       .  A
C2826      C2838   1.409       .  A
C2826      C2834   1.383       .  A
C2827      C2841   1.403       .  A
C2827      C2835   1.382       .  A
C2828      C2836   1.380       .  A
C2828      C2839   1.400       .  A
C2829      C2837   1.386       .  A
C2829      C2840   1.402       .  A
C2830      C2831   1.384       .  A
C2830      H2842   1.081       .  S
C2831      H2843   1.081       .  S
C2832      C2833   1.380       .  A
C2832      H2844   1.075       .  S
C2833      H2845   1.081       .  S
C2834      C2835   1.383       .  A
C2834      H2846   1.081       .  S
C2835      H2847   1.082       .  S
C2836      C2837   1.377       .  A
C2836      H3934   1.081       .  S
C2837      H2849   1.081       .  S
C2838      C3143   1.497       .  S
C2839      C2852   1.489       .  S
C2840      C3212   1.472       .  S
C2841      C3238   1.475       .  S
H2848      C3922   1.080       .  S
C2852      C3939   1.422   1_545  A
C2852      C2857   1.409       .  A
C2853      C3938   1.423       .  A
C2853      C2854   1.403       .  A
C2854      H2859   1.086       .  S
C2855      C3942   1.422       .  A
C2856      C3941   1.420   1_545  A
C2857      H2858   1.085       .  S
N2860      C2865   1.355       .  A
N2860      C2864   1.342       .  A
N2860      H2892   1.042       .  S
N2861      C2868   1.363       .  A
N2861      C2869   1.366       .  A
N2862      C2867   1.354       .  A
N2862      C2866   1.359       .  A
N2862      H2893   1.041       .  S
N2863      C2870   1.347       .  A
N2863      C2871   1.335       .  A
C2864      C2872   1.384       .  A
C2864      C2880   1.404       .  A
C2865      C2881   1.413       .  A
C2865      C2873   1.383       .  A
C2866      C2874   1.392       .  A
C2866      C2883   1.429       .  A
C2867      C2882   1.417       .  A
C2867      C2875   1.385       .  A
C2868      C2880   1.420       .  A
C2868      C2876   1.385       .  A
C2869      C2883   1.422       .  A
C2869      C2877   1.382       .  A
C2870      C2878   1.380       .  A
C2870      C2881   1.392       .  A
C2871      C2879   1.383       .  A
C2871      C2882   1.381       .  A
C2872      C2873   1.381       .  A
C2874      C2875   1.382       .  A
C2874      H2886   1.080       .  S
C2875      H2887   1.081       .  S
C2876      C2877   1.377       .  A
C2876      H2888   1.082       .  S
C2877      H2889   1.081       .  S
C2878      C2879   1.371       .  A
C2878      H2890   1.080       .  S
C2879      H2891   1.083       .  S
C2880      C3168   1.517       .  S
C2881      C3156   1.492       .  S
C2882      C3256   1.469       .  S
C2883      C3183   1.525       .  S
N2894      C2899   1.353       .  A
N2894      C2898   1.348       .  A
N2894      H2926   1.042       .  S
N2895      C2902   1.345       .  A
N2895      C2903   1.349       .  A
N2896      C2901   1.353       .  A
N2896      C2900   1.354       .  A
N2896      H2927   1.042       .  S
N2897      C2904   1.351       .  A
N2897      C2905   1.346       .  A
C2898      C2906   1.387       .  A
C2898      C2914   1.415       .  A
C2899      C2915   1.415       .  A
C2899      C2907   1.383       .  A
C2900      C2908   1.380       .  A
C2900      C2917   1.415       .  A
C2901      C2916   1.414       .  A
C2901      C2909   1.386       .  A
C2902      C2914   1.408       .  A
C2902      C2910   1.385       .  A
C2903      C2917   1.401       .  A
C2903      C2911   1.381       .  A
C2904      C2912   1.379       .  A
C2904      C2915   1.408       .  A
C2905      C2913   1.386       .  A
C2905      C2916   1.408       .  A
C2906      C2907   1.384       .  A
C2906      H2918   1.081       .  S
C2907      H2919   1.080       .  S
C2908      C2909   1.380       .  A
C2908      H2920   1.073       .  S
C2909      H2921   1.080       .  S
C2910      C2911   1.384       .  A
C2910      H2922   1.082       .  S
C2911      H2923   1.082       .  S
C2912      C2913   1.381       .  A
C2912      H2924   1.080       .  S
C2913      H2925   1.081       .  S
C2914      C3160   1.488       .  S
C2915      C3164   1.505       .  S
C2916      C3197   1.478       .  S
C2917      C3240   1.488       .  S
N2928      C2933   1.349       .  A
N2928      C2932   1.350       .  A
N2928      H2960   1.040       .  S
N2929      C2936   1.352       .  A
N2929      C2937   1.350       .  A
N2930      C2935   1.352       .  A
N2930      C2934   1.356       .  A
N2930      H2961   1.042       .  S
N2931      C2938   1.351       .  A
N2931      C2939   1.351       .  A
C2932      C2940   1.383       .  A
C2932      C2948   1.410       .  A
C2933      C2949   1.415       .  A
C2933      C2941   1.387       .  A
C2934      C2942   1.384       .  A
C2934      C2951   1.415       .  A
C2935      C2950   1.416       .  A
C2935      C2943   1.380       .  A
C2936      C2948   1.409       .  A
C2937      C2951   1.413       .  A
C2937      C2945   1.388       .  A
C2938      C2946   1.384       .  A
C2938      C2949   1.416       .  A
C2939      C2947   1.383       .  A
C2939      C2950   1.411       .  A
C2940      C2941   1.381       .  A
C2940      H2952   1.081       .  S
C2941      H2953   1.080       .  S
C2942      C2943   1.383       .  A
C2942      H2954   1.081       .  S
C2943      H2955   1.075       .  S
C2944      H2956   1.081       .  S
C2946      C2947   1.385       .  A
C2946      H2958   1.081       .  S
C2947      H2959   1.081       .  S
C2949      C3149   1.501       .  S
C2950      C3211   1.493       .  S
C2951      C3239   1.491       .  S
N2962      C2967   1.348       .  A
N2962      C2966   1.354       .  A
N2962      H2994   1.042       .  S
N2963      C2970   1.346       .  A
N2963      C2971   1.339       .  A
N2964      C2969   1.361       .  A
N2964      C2968   1.355       .  A
N2964      H2995   1.034       .  S
N2965      C2972   1.353       .  A
N2965      C2973   1.354       .  A
C2966      C2974   1.382       .  A
C2966      C2982   1.413       .  A
C2967      C2983   1.416       .  A
C2967      C2975   1.388       .  A
C2968      C2976   1.380       .  A
C2968      C2985   1.417       .  A
C2969      C2984   1.440       .  A
C2969      C2977   1.396       .  A
C2970      C2982   1.391       .  A
C2970      C2978   1.380       .  A
C2971      C2985   1.381       .  A
C2971      C2979   1.381       .  A
C2972      C2983   1.419       .  A
C2973      C2981   1.383       .  A
C2973      C2984   1.418       .  A
C2974      C2975   1.382       .  A
C2976      C2977   1.380       .  A
C2976      H2988   1.081       .  S
C2977      H2989   1.079       .  S
C2978      C2979   1.372       .  A
C2978      H2990   1.081       .  S
C2979      H2991   1.082       .  S
C2980      H2992   1.081       .  S
C2982      C3151   1.490       .  S
C2984      C3258   1.517       .  S
C2985      C3227   1.473       .  S
N2996      C3001   1.349       .  A
N2996      C3000   1.344       .  A
N2996      H3028   1.051       .  S
N2997      C3004   1.356       .  A
N2997      C3005   1.355       .  A
N2998      C3003   1.349       .  A
N2998      C3002   1.338       .  A
N2998      H3029   1.053       .  S
N2999      C3006   1.345       .  A
N2999      C3007   1.344       .  A
C3000      C3008   1.382       .  A
C3000      C3016   1.403       .  A
C3001      C3017   1.409       .  A
C3001      C3009   1.385       .  A
C3002      C3010   1.387       .  A
C3002      C3019   1.398       .  A
C3003      C3018   1.406       .  A
C3003      C3011   1.388       .  A
C3004      C3016   1.406       .  A
C3004      C3012   1.386       .  A
C3005      C3019   1.402       .  A
C3005      C3013   1.381       .  A
C3006      C3014   1.379       .  A
C3006      C3017   1.397       .  A
C3007      C3015   1.388       .  A
C3007      C3018   1.404       .  A
C3008      C3009   1.378       .  A
C3008      H3020   1.081       .  S
C3009      H3021   1.079       .  S
C3010      C3011   1.369       .  A
C3010      H3022   1.080       .  S
C3011      H3023   1.079       .  S
C3012      C3013   1.374       .  A
C3012      H3024   1.082       .  S
C3013      H3025   1.083       .  S
C3014      C3015   1.376       .  A
C3014      H4112   1.081       .  S
C3015      H4113   1.080       .  S
C3016      C3064   1.516       .  S
C3017      C3148   1.486       .  S
C3018      C3210   1.466       .  S
C3019      C3200   1.460       .  S
H3026      C4100   1.081       .  S
H3027      C4101   1.080       .  S
N3030      C3035   1.350       .  A
N3030      C3034   1.354       .  A
N3030      H3062   1.042       .  S
N3031      C3038   1.357       .  A
N3031      C3039   1.353       .  A
N3032      C3037   1.363       .  A
N3032      C3036   1.366       .  A
N3032      H3063   1.040       .  S
N3033      C3040   1.363       .  A
N3033      C3041   1.360       .  A
C3034      C3042   1.384       .  A
C3034      C3050   1.411       .  A
C3035      C3051   1.406       .  A
C3035      C3043   1.381       .  A
C3036      C3044   1.389       .  A
C3036      C3053   1.442       .  A
C3037      C3052   1.434       .  A
C3037      C3045   1.388       .  A
C3038      C3050   1.416       .  A
C3038      C3046   1.376       .  A
C3039      C3053   1.416       .  A
C3039      C3047   1.380       .  A
C3040      C3048   1.383       .  A
C3040      C3051   1.413       .  A
C3041      C3049   1.383       .  A
C3041      C3052   1.422       .  A
C3042      C3043   1.377       .  A
C3044      C3045   1.379       .  A
C3044      H3056   1.080       .  S
C3045      H3057   1.080       .  S
C3046      C3047   1.374       .  A
C3046      H4144   1.079       .  S
C3047      H4145   1.075       .  S
C3048      C3049   1.372       .  A
C3048      H3060   1.082       .  S
C3049      H3061   1.082       .  S
C3050      C3152   1.511       .  S
C3051      C3068   1.529       .  S
C3052      C3181   1.519       .  S
C3053      C3229   1.527       .  S
H3058      C4132   1.080       .  S
H3059      C4133   1.071       .  S
C3064      C3065   1.415       .  A
C3064      C3069   1.422       .  A
C3065      C3066   1.404       .  A
C3065      C3126   1.485       .  S
C3066      H3071   1.087       .  S
C3067      C3068   1.423       .  A
C3067      C3092   1.486       .  S
C3069      H3070   1.084       .  S
N3072      C3077   1.344       .  A
N3072      C3076   1.354       .  A
N3072      H3104   1.041       .  S
N3073      C3080   1.346       .  A
N3073      C3081   1.337       .  A
N3074      C3079   1.357       .  A
N3074      C3078   1.354       .  A
N3074      H3105   1.041       .  S
N3075      C3082   1.363       .  A
N3075      C3083   1.363       .  A
C3076      C3084   1.386       .  A
C3076      C3092   1.418       .  A
C3077      C3093   1.405       .  A
C3077      C3085   1.384       .  A
C3078      C3086   1.380       .  A
C3078      C3095   1.412       .  A
C3079      C3094   1.423       .  A
C3079      C3087   1.392       .  A
C3080      C3092   1.402       .  A
C3080      C3088   1.385       .  A
C3081      C3095   1.395       .  A
C3081      C3089   1.385       .  A
C3082      C3093   1.415       .  A
C3083      C3091   1.384       .  A
C3083      C3094   1.426       .  A
C3084      C3085   1.380       .  A
C3086      C3087   1.374       .  A
C3086      H3098   1.082       .  S
C3087      H3099   1.078       .  S
C3088      C3089   1.376       .  A
C3088      H3100   1.082       .  S
C3089      H3101   1.082       .  S
C3090      H3102   1.082       .  S
C3094      C3255   1.515       .  S
C3095      C3182   1.467       .  S
N3106      C3111   1.350       .  A
N3106      C3110   1.346       .  A
N3106      H3138   1.043       .  S
N3107      C3114   1.348       .  A
N3107      C3115   1.346       .  A
N3108      C3113   1.349       .  A
N3108      C3112   1.348       .  A
N3108      H3139   1.043       .  S
N3109      C3116   1.348       .  A
N3109      C3117   1.345       .  A
C3110      C3118   1.388       .  A
C3110      C3126   1.411       .  A
C3111      C3127   1.407       .  A
C3111      C3119   1.383       .  A
C3112      C3120   1.384       .  A
C3112      C3129   1.408       .  A
C3113      C3128   1.403       .  A
C3113      C3121   1.387       .  A
C3114      C3126   1.414       .  A
C3114      C3122   1.387       .  A
C3115      C3129   1.412       .  A
C3115      C3123   1.387       .  A
C3116      C3127   1.407       .  A
C3117      C3125   1.386       .  A
C3117      C3128   1.406       .  A
C3118      C3119   1.380       .  A
C3118      H3130   1.081       .  S
C3119      H3131   1.081       .  S
C3120      C3121   1.371       .  A
C3120      H3132   1.075       .  S
C3121      H3133   1.080       .  S
C3122      C3123   1.386       .  A
C3122      H3134   1.082       .  S
C3123      H3135   1.082       .  S
C3124      H3136   1.081       .  S
C3128      C3241   1.466       .  S
C3129      C3198   1.476       .  S
C3140      C3141   1.418       .  A
C3142      C3143   1.403       .  A
C3142      H3147   1.086       .  S
C3143      C3144   1.419   1_655  A
C3145      H3146   1.085       .  S
C3148      C4235   1.415   1_545  A
C3148      C3153   1.408       .  A
C3149      C4234   1.416       .  A
C3149      C3150   1.404       .  A
C3150      H3155   1.085       .  S
C3151      C4238   1.423       .  A
C3152      C4237   1.422   1_545  A
C3153      H3154   1.085       .  S
C3156      C3157   1.419       .  A
C3158      H3163   1.085       .  S
C3159      C3160   1.418       .  A
C3160      C3161   1.404       .  A
C3161      H3162   1.086       .  S
C3164      C3165   1.425       .  A
C3164      C3169   1.418       .  A
C3165      C3166   1.402       .  A
C3166      H3171   1.086       .  S
C3167      C3168   1.418       .  A
C3169      H3170   1.085       .  S
O3172      C3180   1.268       .  A
O3172     Co3192   1.887       .  S
O3173      C3181   1.256       .  A
O3173     Co3193   1.968       .  S
O3174      C3182   1.259       .  A
O3174     Co3194   1.996       .  S
O3175      C3183   1.278       .  A
O3175     Co3195   2.050       .  S
O3176      C3182   1.251       .  A
O3176     Co3193   1.960       .  S
O3177      C3183   1.265       .  A
O3177     Co3192   1.996       .  S
O3178      C3181   1.270       .  A
O3178     Co3195   2.040       .  S
O3179      C3180   1.290       .  A
O3179     Co3194   2.059       .  S
O3184      C3197   1.265       .  A
O3184     Co3192   2.007       .  S
O3185      C3198   1.247       .  A
O3185     Co3193   1.951       .  S
O3186      C3199   1.250       .  A
O3186     Co3194   1.978       .  S
O3187      C3200   1.272       .  A
O3187     Co3195   2.013       .  S
O3188      C3200   1.262       .  A
O3188     Co3193   1.955       .  S
O3189      C3199   1.252       .  A
O3189     Co3192   1.992       .  S
O3190      C3197   1.259       .  A
O3190     Co3195   1.979       .  S
O3191      C3198   1.270       .  A
O3191     Co3194   2.030       .  S
Co3192     O3196   1.946       .  S
Co3193     O3196   1.975       .  S
Co3194     O3196   2.186       .  S
Co3195     O3196   2.108       .  S
O3201      C3209   1.251       .  A
O3201     Co3221   1.994       .  S
O3202      C3210   1.274       .  A
O3202     Co4308   2.002   1_545  S
O3203      C3211   1.254       .  A
O3203     Co3223   2.024       .  S
O3204      C3212   1.260       .  A
O3204     Co3224   1.970       .  S
O3205      C3211   1.239       .  A
O3205     Co3222   1.979       .  S
O3206      C3212   1.266       .  A
O3206     Co4307   2.006   1_545  S
O3207      C3210   1.261       .  A
O3207     Co3224   1.958       .  S
O3208      C3209   1.252       .  A
O3208     Co3223   1.990       .  S
O3213      C3226   1.266       .  A
O3213     Co4307   2.009   1_545  S
O3214      C3227   1.277       .  A
O3214     Co3222   1.910       .  S
O3215      C3228   1.298       .  A
O3215     Co3223   2.084       .  S
O3216      C3229   1.267       .  A
O3216     Co3224   2.025       .  S
O3217      C3229   1.271       .  A
O3217     Co4308   2.009   1_545  S
O3218      C3228   1.266       .  A
O3218     Co3221   1.879       .  S
O3219      C3226   1.265       .  A
O3219     Co3224   2.001       .  S
O3220      C3227   1.288       .  A
O3220     Co3223   2.042       .  S
Co3221     O4292   2.002       .  S
Co3221     O4299   2.010       .  S
Co3221     O3225   1.944       .  S
Co3222     O4288   2.001       .  S
Co3222     O4303   2.017       .  S
Co3222     O3225   1.936       .  S
Co3223     O3225   2.251       .  S
Co3224     O4311   2.078   1_545  S
O3225     Co4310   2.080       .  S
O3230      C3238   1.245       .  A
O3230     Co3250   1.958       .  S
O3231      C3239   1.281       .  A
O3232      C3240   1.255       .  A
O3232     Co3252   1.979       .  S
O3233      C3241   1.262       .  A
O3233     Co3253   1.987       .  S
O3234      C3240   1.259       .  A
O3234     Co3251   2.013       .  S
O3235      C3241   1.265       .  A
O3236      C3239   1.261       .  A
O3236     Co3253   1.960       .  S
O3237      C3238   1.264       .  A
O3237     Co3252   2.024       .  S
O3242      C3255   1.247       .  A
O3243      C3256   1.275       .  A
O3243     Co3251   1.885       .  S
O3244      C3257   1.261       .  A
O3244     Co3252   2.003       .  S
O3245      C3258   1.262       .  A
O3245     Co3253   2.009       .  S
O3246      C3258   1.265       .  A
O3247      C3257   1.254       .  A
O3247     Co3250   1.954       .  S
O3248      C3255   1.278       .  A
O3248     Co3253   2.066       .  S
O3249      C3256   1.285       .  A
O3249     Co3252   2.052       .  S
Co3250     O3254   1.970       .  S
Co3251     O3254   1.971       .  S
Co3252     O3254   2.175       .  S
N3259      C3264   1.354       .  A
N3259      C3263   1.354       .  A
N3259      H3291   1.042       .  S
N3260      C3267   1.354       .  A
N3260      C3268   1.352       .  A
N3261      C3266   1.357       .  A
N3261      C3265   1.358       .  A
N3261      H3292   1.040       .  S
N3262      C3269   1.353       .  A
N3262      C3270   1.351       .  A
C3263      C3271   1.386       .  A
C3263      C3279   1.422       .  A
C3264      C3280   1.420       .  A
C3264      C3272   1.385       .  A
C3265      C3273   1.387       .  A
C3265      C3282   1.425       .  A
C3266      C3281   1.422       .  A
C3266      C3274   1.385       .  A
C3267      C3279   1.413       .  A
C3267      C3275   1.381       .  A
C3268      C3282   1.405       .  A
C3268      C3276   1.380       .  A
C3269      C3277   1.382       .  A
C3269      C3280   1.412       .  A
C3270      C3278   1.381       .  A
C3270      C3281   1.404       .  A
C3271      C3272   1.385       .  A
C3271      H3283   1.081       .  S
C3272      H3284   1.081       .  S
C3273      C3274   1.371       .  A
C3273      H3285   1.080       .  S
C3274      H3286   1.081       .  S
C3275      C3276   1.377       .  A
C3275      H3287   1.080       .  S
C3276      H3288   1.082       .  S
C3277      C3278   1.378       .  A
C3277      H3289   1.081       .  S
C3278      H3290   1.081       .  S
C3279      C3708   1.507       .  S
C3280      C3396   1.503       .  S
C3281      C3752   1.490       .  S
C3282      C3742   1.493       .  S
N3293      C3298   1.348       .  A
N3293      C3297   1.348       .  A
N3293      H3325   1.044       .  S
N3294      C3301   1.340       .  A
N3294      C3302   1.340       .  A
N3295      C3300   1.347       .  A
N3295      C3299   1.348       .  A
N3295      H3326   1.044       .  S
N3296      C3303   1.340       .  A
N3296      C3304   1.337       .  A
C3297      C3305   1.384       .  A
C3297      C3313   1.412       .  A
C3298      C3314   1.415       .  A
C3298      C3306   1.385       .  A
C3299      C3307   1.383       .  A
C3299      C3316   1.406       .  A
C3300      C3315   1.408       .  A
C3300      C3308   1.386       .  A
C3301      C3313   1.396       .  A
C3301      C3309   1.380       .  A
C3302      C3316   1.393       .  A
C3302      C3310   1.384       .  A
C3303      C3311   1.387       .  A
C3303      C3314   1.402       .  A
C3304      C3312   1.391       .  A
C3304      C3315   1.404       .  A
C3305      C3306   1.383       .  A
C3305      H3860   1.081       .  S
C3306      H3861   1.080       .  S
C3307      C3308   1.385       .  A
C3307      H3319   1.082       .  S
C3308      H3320   1.082       .  S
C3309      C3310   1.383       .  A
C3309      H3321   1.080       .  S
C3310      H3322   1.082       .  S
C3311      C3312   1.387       .  A
C3311      H3323   1.082       .  S
C3312      H3324   1.082       .  S
C3313      C3398   1.485       .  S
C3314      C3710   1.482       .  S
C3315      C3723   1.460       .  S
C3316      C3771   1.464       .  S
H3317      C3848   1.081       .  S
H3318      C3849   1.080       .  S
N3327      C3332   1.349       .  A
N3327      C3331   1.351       .  A
N3327      H3359   1.043       .  S
N3328      C3335   1.343       .  A
N3328      C3336   1.337       .  A
N3329      C3334   1.359       .  A
N3329      C3333   1.356       .  A
N3329      H3360   1.037       .  S
N3330      C3337   1.356       .  A
N3330      C3338   1.353       .  A
C3331      C3339   1.385       .  A
C3331      C3347   1.413       .  A
C3332      C3348   1.412       .  A
C3332      C3340   1.387       .  A
C3333      C3341   1.378       .  A
C3333      C3350   1.413       .  A
C3334      C3349   1.437       .  A
C3334      C3342   1.397       .  A
C3335      C3347   1.400       .  A
C3335      C3343   1.387       .  A
C3336      C3350   1.393       .  A
C3336      C3344   1.386       .  A
C3337      C3345   1.377       .  A
C3337      C3348   1.418       .  A
C3338      C3346   1.380       .  A
C3338      C3349   1.421       .  A
C3339      C3340   1.381       .  A
C3339      H3894   1.081       .  S
C3340      H3895   1.081       .  S
C3341      C3342   1.371       .  A
C3341      H3353   1.082       .  S
C3342      H3354   1.078       .  S
C3343      C3344   1.379       .  A
C3343      H3355   1.082       .  S
C3344      H3356   1.082       .  S
C3345      C3346   1.380       .  A
C3346      H3358   1.073       .  S
C3347      C3684   1.480       .  S
C3348      C3399   1.507       .  S
C3349      C3769   1.515       .  S
C3350      C3800   1.470       .  S
H3351      C3882   1.081       .  S
H3352      C3883   1.082       .  S
N3361      C3366   1.351       .  A
N3361      C3365   1.350       .  A
N3361      H3393   1.042       .  S
N3362      C3369   1.347       .  A
N3362      C3370   1.348       .  A
N3363      C3368   1.351       .  A
N3363      C3367   1.347       .  A
N3363      H3394   1.043       .  S
N3364      C3371   1.345       .  A
N3364      C3372   1.345       .  A
C3365      C3373   1.387       .  A
C3365      C3381   1.418       .  A
C3366      C3382   1.416       .  A
C3366      C3374   1.385       .  A
C3367      C3375   1.381       .  A
C3367      C3384   1.408       .  A
C3368      C3383   1.406       .  A
C3368      C3376   1.383       .  A
C3369      C3381   1.407       .  A
C3369      C3377   1.384       .  A
C3370      C3384   1.402       .  A
C3370      C3378   1.382       .  A
C3371      C3379   1.381       .  A
C3371      C3382   1.402       .  A
C3372      C3380   1.385       .  A
C3372      C3383   1.400       .  A
C3373      C3374   1.385       .  A
C3373      H3385   1.081       .  S
C3374      H3386   1.081       .  S
C3375      C3376   1.380       .  A
C3375      H3387   1.073       .  S
C3376      H3388   1.080       .  S
C3377      C3378   1.383       .  A
C3377      H3389   1.082       .  S
C3378      H3390   1.082       .  S
C3379      C3380   1.380       .  A
C3380      H3392   1.081       .  S
C3381      C3686   1.493       .  S
C3382      C3395   1.492       .  S
C3383      C3755   1.473       .  S
C3384      C3781   1.481       .  S
C3395      C3400   1.407       .  A
C3396      C3397   1.400       .  A
C3397      C3941   1.405   1_554  A
C3397      H3402   1.086       .  S
C3398      C3940   1.407       .  A
C3399      C3943   1.408       .  A
C3400      C3942   1.408   1_554  A
C3400      H3401   1.085       .  S
N3403      C3408   1.354       .  A
N3403      C3407   1.342       .  A
N3403      H3435   1.042       .  S
N3404      C3411   1.363       .  A
N3404      C3412   1.366       .  A
N3405      C3410   1.356       .  A
N3405      C3409   1.360       .  A
N3405      H3436   1.041       .  S
N3406      C3413   1.349       .  A
N3406      C3414   1.339       .  A
C3407      C3415   1.384       .  A
C3407      C3423   1.404       .  A
C3408      C3424   1.412       .  A
C3408      C3416   1.384       .  A
C3409      C3417   1.391       .  A
C3409      C3426   1.431       .  A
C3410      C3425   1.420       .  A
C3410      C3418   1.385       .  A
C3411      C3423   1.418       .  A
C3411      C3419   1.384       .  A
C3412      C3426   1.422       .  A
C3412      C3420   1.381       .  A
C3413      C3421   1.380       .  A
C3413      C3424   1.393       .  A
C3414      C3422   1.382       .  A
C3414      C3425   1.383       .  A
C3415      C3416   1.380       .  A
C3415      H3970   1.080       .  S
C3416      H3971   1.080       .  S
C3417      C3418   1.382       .  A
C3417      H3429   1.080       .  S
C3418      H3430   1.081       .  S
C3419      C3420   1.377       .  A
C3419      H3431   1.083       .  S
C3420      H3432   1.081       .  S
C3421      C3422   1.371       .  A
C3421      H3433   1.081       .  S
C3422      H3434   1.083       .  S
C3423      C3711   1.515       .  S
C3424      C3699   1.494       .  S
C3425      C3799   1.480       .  S
C3426      C3726   1.527       .  S
H3427      C3958   1.080       .  S
H3428      C3959   1.080       .  S
N3437      C3442   1.352       .  A
N3437      C3441   1.347       .  A
N3437      H3469   1.042       .  S
N3438      C3445   1.346       .  A
N3438      C3446   1.350       .  A
N3439      C3444   1.354       .  A
N3439      C3443   1.354       .  A
N3439      H3470   1.041       .  S
N3440      C3447   1.351       .  A
N3440      C3448   1.346       .  A
C3441      C3449   1.387       .  A
C3441      C3457   1.414       .  A
C3442      C3458   1.413       .  A
C3442      C3450   1.383       .  A
C3443      C3451   1.380       .  A
C3443      C3460   1.415       .  A
C3444      C3459   1.415       .  A
C3444      C3452   1.386       .  A
C3445      C3457   1.409       .  A
C3445      C3453   1.384       .  A
C3446      C3460   1.403       .  A
C3446      C3454   1.382       .  A
C3447      C3455   1.380       .  A
C3447      C3458   1.410       .  A
C3448      C3456   1.387       .  A
C3448      C3459   1.408       .  A
C3449      C3450   1.384       .  A
C3449      H3461   1.081       .  S
C3450      H3462   1.080       .  S
C3451      C3452   1.381       .  A
C3451      H3463   1.075       .  S
C3452      H3464   1.080       .  S
C3453      C3454   1.385       .  A
C3453      H3465   1.082       .  S
C3454      H3466   1.082       .  S
C3455      C3456   1.383       .  A
C3455      H3467   1.081       .  S
C3456      H3468   1.081       .  S
C3457      C3703   1.490       .  S
C3458      C3707   1.503       .  S
C3459      C3740   1.481       .  S
C3460      C3783   1.490       .  S
N3471      C3476   1.349       .  A
N3471      C3475   1.349       .  A
N3471      H3503   1.042       .  S
N3472      C3479   1.351       .  A
N3472      C3480   1.349       .  A
N3473      C3478   1.351       .  A
N3473      C3477   1.356       .  A
N3473      H3504   1.042       .  S
N3474      C3481   1.352       .  A
N3474      C3482   1.351       .  A
C3475      C3483   1.383       .  A
C3475      C3491   1.408       .  A
C3476      C3492   1.413       .  A
C3476      C3484   1.387       .  A
C3477      C3485   1.385       .  A
C3477      C3494   1.414       .  A
C3478      C3493   1.416       .  A
C3478      C3486   1.381       .  A
C3479      C3491   1.407       .  A
C3480      C3494   1.413       .  A
C3480      C3488   1.388       .  A
C3481      C3489   1.384       .  A
C3481      C3492   1.417       .  A
C3482      C3490   1.383       .  A
C3482      C3493   1.414       .  A
C3483      C3484   1.381       .  A
C3483      H3495   1.081       .  S
C3484      H3496   1.079       .  S
C3485      C3486   1.383       .  A
C3485      H3497   1.081       .  S
C3486      H3498   1.075       .  S
C3487      H3499   1.081       .  S
C3489      C3490   1.387       .  A
C3489      H3501   1.082       .  S
C3490      H3502   1.081       .  S
C3492      C3692   1.503       .  S
C3493      C3754   1.496       .  S
C3494      C3782   1.488       .  S
N3505      C3510   1.349       .  A
N3505      C3509   1.355       .  A
N3505      H3537   1.039       .  S
N3506      C3513   1.346       .  A
N3506      C3514   1.341       .  A
N3507      C3512   1.361       .  A
N3507      C3511   1.354       .  A
N3507      H3538   1.028       .  S
N3508      C3515   1.353       .  A
N3508      C3516   1.355       .  A
C3509      C3517   1.382       .  A
C3509      C3525   1.414       .  A
C3510      C3526   1.417       .  A
C3510      C3518   1.389       .  A
C3511      C3519   1.379       .  A
C3511      C3528   1.414       .  A
C3512      C3527   1.439       .  A
C3512      C3520   1.396       .  A
C3513      C3525   1.392       .  A
C3513      C3521   1.380       .  A
C3514      C3528   1.382       .  A
C3514      C3522   1.381       .  A
C3515      C3526   1.421       .  A
C3516      C3524   1.383       .  A
C3516      C3527   1.419       .  A
C3517      C3518   1.383       .  A
C3517      H4072   1.081       .  S
C3518      H4073   1.081       .  S
C3519      C3520   1.379       .  A
C3519      H3531   1.081       .  S
C3520      H3532   1.079       .  S
C3521      C3522   1.372       .  A
C3521      H3533   1.082       .  S
C3522      H3534   1.083       .  S
C3523      H3535   1.081       .  S
C3525      C3694   1.491       .  S
C3527      C3801   1.518       .  S
C3528      C3770   1.471       .  S
H3529      C4060   1.080       .  S
H3530      C4061   1.081       .  S
N3539      C3544   1.350       .  A
N3539      C3543   1.343       .  A
N3539      H3571   1.042       .  S
N3540      C3547   1.358       .  A
N3540      C3548   1.357       .  A
N3541      C3546   1.350       .  A
N3541      C3545   1.340       .  A
N3541      H3572   1.039       .  S
N3542      C3549   1.347       .  A
N3542      C3550   1.345       .  A
C3543      C3551   1.382       .  A
C3543      C3559   1.400       .  A
C3544      C3560   1.406       .  A
C3544      C3552   1.384       .  A
C3545      C3553   1.388       .  A
C3545      C3562   1.399       .  A
C3546      C3561   1.407       .  A
C3546      C3554   1.390       .  A
C3547      C3559   1.408       .  A
C3547      C3555   1.386       .  A
C3548      C3562   1.405       .  A
C3548      C3556   1.381       .  A
C3549      C3557   1.378       .  A
C3549      C3560   1.399       .  A
C3550      C3558   1.390       .  A
C3550      C3561   1.409       .  A
C3551      C3552   1.377       .  A
C3551      H3563   1.081       .  S
C3552      H3564   1.079       .  S
C3553      C3554   1.367       .  A
C3553      H3565   1.080       .  S
C3554      H3566   1.079       .  S
C3555      C3556   1.374       .  A
C3555      H3567   1.082       .  S
C3556      H3568   1.083       .  S
C3557      C3558   1.378       .  A
C3559      C3607   1.517       .  S
C3560      C3691   1.489       .  S
C3561      C3753   1.468       .  S
C3562      C3743   1.463       .  S
N3573      C3578   1.349       .  A
N3573      C3577   1.352       .  A
N3573      H3605   1.041       .  S
N3574      C3581   1.357       .  A
N3574      C3582   1.354       .  A
N3575      C3580   1.362       .  A
N3575      C3579   1.364       .  A
N3575      H3606   1.041       .  S
N3576      C3583   1.362       .  A
N3576      C3584   1.360       .  A
C3577      C3585   1.386       .  A
C3577      C3593   1.412       .  A
C3578      C3594   1.405       .  A
C3578      C3586   1.381       .  A
C3579      C3587   1.388       .  A
C3579      C3596   1.438       .  A
C3580      C3595   1.432       .  A
C3580      C3588   1.388       .  A
C3581      C3593   1.417       .  A
C3581      C3589   1.379       .  A
C3582      C3596   1.414       .  A
C3582      C3590   1.378       .  A
C3583      C3591   1.383       .  A
C3583      C3594   1.411       .  A
C3584      C3592   1.383       .  A
C3584      C3595   1.421       .  A
C3585      C3586   1.378       .  A
C3585      H4140   1.080       .  S
C3586      H4141   1.081       .  S
C3587      C3588   1.379       .  A
C3587      H3599   1.081       .  S
C3588      H3600   1.080       .  S
C3589      C3590   1.376       .  A
C3591      C3592   1.372       .  A
C3591      H3603   1.082       .  S
C3592      H3604   1.082       .  S
C3593      C3695   1.507       .  S
C3594      C3611   1.524       .  S
C3595      C3724   1.518       .  S
C3596      C3772   1.527       .  S
H3597      C4128   1.080       .  S
H3598      C4129   1.081       .  S
C3607      C3608   1.416       .  A
C3607      C3612   1.426       .  A
C3608      C3609   1.404       .  A
C3608      C3669   1.487       .  S
C3609      C4153   1.403   1_554  A
C3609      H3614   1.087       .  S
C3610      C4152   1.403       .  A
C3610      C3611   1.419       .  A
C3610      C3635   1.482       .  S
C3611      C4155   1.420       .  A
C3612      C4154   1.423   1_554  A
C3612      H3613   1.084       .  S
N3615      C3620   1.343       .  A
N3615      C3619   1.354       .  A
N3615      H3647   1.038       .  S
N3616      C3623   1.345       .  A
N3616      C3624   1.336       .  A
N3617      C3622   1.357       .  A
N3617      C3621   1.354       .  A
N3617      H3648   1.038       .  S
N3618      C3625   1.362       .  A
N3618      C3626   1.362       .  A
C3619      C3627   1.386       .  A
C3619      C3635   1.416       .  A
C3620      C3636   1.403       .  A
C3620      C3628   1.384       .  A
C3621      C3629   1.380       .  A
C3621      C3638   1.411       .  A
C3622      C3637   1.423       .  A
C3622      C3630   1.392       .  A
C3623      C3635   1.399       .  A
C3623      C3631   1.385       .  A
C3624      C3638   1.392       .  A
C3624      C3632   1.385       .  A
C3625      C3636   1.412       .  A
C3626      C3634   1.384       .  A
C3626      C3637   1.423       .  A
C3627      C3628   1.381       .  A
C3627      H4182   1.081       .  S
C3628      H4183   1.082       .  S
C3629      C3630   1.373       .  A
C3629      H3641   1.082       .  S
C3630      H3642   1.078       .  S
C3631      C3632   1.374       .  A
C3631      H3643   1.082       .  S
C3632      H3644   1.082       .  S
C3633      H3645   1.082       .  S
C3637      C3798   1.512       .  S
C3638      C3725   1.464       .  S
H3639      C4170   1.081       .  S
H3640      C4171   1.082       .  S
N3649      C3654   1.350       .  A
N3649      C3653   1.346       .  A
N3649      H3681   1.044       .  S
N3650      C3657   1.348       .  A
N3650      C3658   1.347       .  A
N3651      C3656   1.348       .  A
N3651      C3655   1.348       .  A
N3651      H3682   1.043       .  S
N3652      C3659   1.349       .  A
N3652      C3660   1.345       .  A
C3653      C3661   1.388       .  A
C3653      C3669   1.412       .  A
C3654      C3670   1.407       .  A
C3654      C3662   1.382       .  A
C3655      C3663   1.384       .  A
C3655      C3672   1.408       .  A
C3656      C3671   1.404       .  A
C3656      C3664   1.388       .  A
C3657      C3669   1.414       .  A
C3657      C3665   1.387       .  A
C3658      C3672   1.413       .  A
C3658      C3666   1.386       .  A
C3659      C3670   1.408       .  A
C3660      C3668   1.387       .  A
C3660      C3671   1.407       .  A
C3661      C3662   1.380       .  A
C3661      H3673   1.081       .  S
C3662      H3674   1.081       .  S
C3663      C3664   1.373       .  A
C3663      H3675   1.075       .  S
C3664      H3676   1.080       .  S
C3665      C3666   1.386       .  A
C3665      H3677   1.082       .  S
C3666      H3678   1.082       .  S
C3667      H3679   1.081       .  S
C3671      C3784   1.467       .  S
C3672      C3741   1.479       .  S
C3683      C3684   1.417       .  A
C3684      C4228   1.406       .  A
C3685      C4227   1.404   1_554  A
C3685      C3686   1.400       .  A
C3685      H3690   1.086       .  S
C3686      C3687   1.416   1_655  A
C3688      H3689   1.085       .  S
C3691      C3696   1.411       .  A
C3692      C3693   1.405       .  A
C3693      C4237   1.408   1_554  A
C3693      H3698   1.085       .  S
C3694      C4236   1.408       .  A
C3695      C4239   1.408       .  A
C3696      C4238   1.409   1_554  A
C3696      H3697   1.085       .  S
C3699      C3700   1.418       .  A
C3699      C4247   1.401       .  A
C3701      H3706   1.085       .  S
C3702      C3703   1.418       .  A
C3703      C3704   1.404       .  A
C3704      C4242   1.400   1_554  A
C3704      H3705   1.086       .  S
C3707      C3708   1.425       .  A
C3707      C3712   1.419       .  A
C3708      C3709   1.402       .  A
C3709      C4253   1.407   1_554  A
C3709      H3714   1.086       .  S
C3710      C4252   1.406       .  A
C3710      C3711   1.418       .  A
C3711      C4255   1.420       .  A
C3712      C4254   1.418   1_554  A
C3712      H3713   1.085       .  S
O3715      C3723   1.269       .  A
O3715     Co3735   1.886       .  S
O3716      C3724   1.256       .  A
O3716     Co3736   1.968       .  S
O3717      C3725   1.258       .  A
O3717     Co3737   1.994       .  S
O3718      C3726   1.277       .  A
O3718     Co3738   2.053       .  S
O3719      C3725   1.249       .  A
O3719     Co3736   1.956       .  S
O3720      C3726   1.265       .  A
O3720     Co3735   1.996       .  S
O3721      C3724   1.271       .  A
O3721     Co3738   2.042       .  S
O3722      C3723   1.290       .  A
O3722     Co3737   2.059       .  S
O3727      C3740   1.268       .  A
O3727     Co3735   2.014       .  S
O3728      C3741   1.247       .  A
O3728     Co3736   1.952       .  S
O3729      C3742   1.251       .  A
O3729     Co3737   1.982       .  S
O3730      C3743   1.273       .  A
O3730     Co3738   2.018       .  S
O3731      C3743   1.261       .  A
O3731     Co3736   1.951       .  S
O3732      C3742   1.252       .  A
O3732     Co3735   1.992       .  S
O3733      C3740   1.259       .  A
O3733     Co3738   1.977       .  S
O3734      C3741   1.271       .  A
O3734     Co3737   2.036       .  S
Co3735     O3739   1.947       .  S
Co3736     O3739   1.976       .  S
Co3737     O3739   2.188       .  S
Co3738     O3739   2.111       .  S
O3744      C3752   1.253       .  A
O3744     Co3764   1.992       .  S
O3745      C3753   1.273       .  A
O3746      C3754   1.253       .  A
O3746     Co3766   2.027       .  S
O3747      C3755   1.260       .  A
O3747     Co3767   1.973       .  S
O3748      C3754   1.237       .  A
O3748     Co3765   1.985       .  S
O3749      C3755   1.267       .  A
O3750      C3753   1.260       .  A
O3750     Co3767   1.958       .  S
O3751      C3752   1.251       .  A
O3751     Co3766   1.981       .  S
O3756      C3769   1.267       .  A
O3757      C3770   1.277       .  A
O3757     Co3765   1.907       .  S
O3758      C3771   1.299       .  A
O3758     Co3766   2.093       .  S
O3759      C3772   1.268       .  A
O3759     Co3767   2.027       .  S
O3760      C3772   1.272       .  A
O3761      C3771   1.265       .  A
O3761     Co3764   1.873       .  S
O3762      C3769   1.266       .  A
O3762     Co3767   2.006       .  S
O3763      C3770   1.290       .  A
O3763     Co3766   2.046       .  S
Co3764     O3768   1.949       .  S
Co3765     O3768   1.930       .  S
Co3766     O3768   2.244       .  S
O3773      C3781   1.237       .  A
O3773     Co3793   1.987       .  S
O3774      C3782   1.281       .  A
O3775      C3783   1.253       .  A
O3775     Co3795   1.987       .  S
O3776      C3784   1.263       .  A
O3776     Co3796   1.990       .  S
O3777      C3783   1.256       .  A
O3777     Co3794   2.006       .  S
O3778      C3784   1.263       .  A
O3779      C3782   1.262       .  A
O3779     Co3796   1.957       .  S
O3780      C3781   1.246       .  A
O3780     Co3795   2.003       .  S
O3785      C3798   1.248       .  A
O3786      C3799   1.275       .  A
O3786     Co3794   1.892       .  S
O3787      C3800   1.289       .  A
O3787     Co3795   2.041       .  S
O3788      C3801   1.262       .  A
O3788     Co3796   2.010       .  S
O3789      C3801   1.265       .  A
O3790      C3800   1.279       .  A
O3790     Co3793   1.910       .  S
O3791      C3798   1.277       .  A
O3791     Co3796   2.059       .  S
O3792      C3799   1.289       .  A
O3792     Co3795   2.068       .  S
Co3793     O3797   1.938       .  S
Co3794     O3797   1.971       .  S
Co3795     O3797   2.221       .  S
N3802      C3807   1.354       .  A
N3802      C3806   1.353       .  A
N3802      H3834   1.042       .  S
N3803      C3810   1.352       .  A
N3803      C3811   1.351       .  A
N3804      C3809   1.356       .  A
N3804      C3808   1.357       .  A
N3804      H3835   1.039       .  S
N3805      C3812   1.353       .  A
N3805      C3813   1.350       .  A
C3806      C3814   1.386       .  A
C3806      C3822   1.422       .  A
C3807      C3823   1.420       .  A
C3807      C3815   1.385       .  A
C3808      C3816   1.387       .  A
C3808      C3825   1.424       .  A
C3809      C3824   1.421       .  A
C3809      C3817   1.385       .  A
C3810      C3822   1.409       .  A
C3810      C3818   1.382       .  A
C3811      C3825   1.402       .  A
C3811      C3819   1.381       .  A
C3812      C3820   1.383       .  A
C3812      C3823   1.411       .  A
C3813      C3821   1.380       .  A
C3813      C3824   1.402       .  A
C3814      C3815   1.387       .  A
C3814      H3826   1.081       .  S
C3815      H3827   1.081       .  S
C3816      C3817   1.372       .  A
C3816      H3828   1.080       .  S
C3817      H3829   1.081       .  S
C3818      C3819   1.376       .  A
C3818      H3830   1.081       .  S
C3819      H3831   1.082       .  S
C3820      C3821   1.377       .  A
C3820      H3832   1.081       .  S
C3821      H3833   1.082       .  S
C3822      C4251   1.502       .  S
C3823      C3939   1.504       .  S
C3824      C4295   1.488       .  S
C3825      C4285   1.492       .  S
N3836      C3841   1.348       .  A
N3836      C3840   1.349       .  A
N3836      H3868   1.044       .  S
N3837      C3844   1.339       .  A
N3837      C3845   1.338       .  A
N3838      C3843   1.349       .  A
N3838      C3842   1.348       .  A
N3838      H3869   1.044       .  S
N3839      C3846   1.340       .  A
N3839      C3847   1.338       .  A
C3840      C3848   1.384       .  A
C3840      C3856   1.412       .  A
C3841      C3857   1.414       .  A
C3841      C3849   1.385       .  A
C3842      C3850   1.383       .  A
C3842      C3859   1.408       .  A
C3843      C3858   1.412       .  A
C3843      C3851   1.385       .  A
C3844      C3856   1.395       .  A
C3844      C3852   1.381       .  A
C3845      C3859   1.392       .  A
C3845      C3853   1.385       .  A
C3846      C3854   1.386       .  A
C3846      C3857   1.401       .  A
C3847      C3855   1.390       .  A
C3847      C3858   1.402       .  A
C3848      C3849   1.383       .  A
C3850      C3851   1.387       .  A
C3850      H3862   1.082       .  S
C3851      H3863   1.082       .  S
C3852      C3853   1.383       .  A
C3852      H3864   1.080       .  S
C3853      H3865   1.082       .  S
C3854      C3855   1.385       .  A
C3854      H3866   1.082       .  S
C3855      H3867   1.081       .  S
C3856      C3941   1.484       .  S
C3857      C4253   1.481       .  S
C3858      C4266   1.466       .  S
C3859      C4314   1.460       .  S
N3870      C3875   1.350       .  A
N3870      C3874   1.351       .  A
N3870      H3902   1.043       .  S
N3871      C3878   1.344       .  A
N3871      C3879   1.339       .  A
N3872      C3877   1.359       .  A
N3872      C3876   1.357       .  A
N3872      H3903   1.036       .  S
N3873      C3880   1.356       .  A
N3873      C3881   1.353       .  A
C3874      C3882   1.385       .  A
C3874      C3890   1.415       .  A
C3875      C3891   1.412       .  A
C3875      C3883   1.386       .  A
C3876      C3884   1.377       .  A
C3876      C3893   1.410       .  A
C3877      C3892   1.434       .  A
C3877      C3885   1.396       .  A
C3878      C3890   1.403       .  A
C3878      C3886   1.387       .  A
C3879      C3893   1.398       .  A
C3879      C3887   1.386       .  A
C3880      C3888   1.377       .  A
C3880      C3891   1.415       .  A
C3881      C3889   1.379       .  A
C3881      C3892   1.418       .  A
C3882      C3883   1.381       .  A
C3884      C3885   1.366       .  A
C3884      H3896   1.082       .  S
C3885      H3897   1.078       .  S
C3886      C3887   1.379       .  A
C3886      H3898   1.082       .  S
C3887      H3899   1.082       .  S
C3888      C3889   1.378       .  A
C3889      H3901   1.072       .  S
C3890      C4227   1.482       .  S
C3891      C3942   1.506       .  S
C3892      C4312   1.514       .  S
C3893      C4343   1.470       .  S
N3904      C3909   1.352       .  A
N3904      C3908   1.351       .  A
N3904      H3936   1.041       .  S
N3905      C3912   1.349       .  A
N3905      C3913   1.349       .  A
N3906      C3911   1.350       .  A
N3906      C3910   1.348       .  A
N3906      H3937   1.042       .  S
N3907      C3914   1.347       .  A
N3907      C3915   1.347       .  A
C3908      C3916   1.387       .  A
C3908      C3924   1.418       .  A
C3909      C3925   1.417       .  A
C3909      C3917   1.385       .  A
C3910      C3918   1.382       .  A
C3910      C3927   1.408       .  A
C3911      C3926   1.406       .  A
C3911      C3919   1.384       .  A
C3912      C3924   1.412       .  A
C3912      C3920   1.384       .  A
C3913      C3927   1.406       .  A
C3913      C3921   1.382       .  A
C3914      C3922   1.380       .  A
C3914      C3925   1.404       .  A
C3915      C3923   1.384       .  A
C3915      C3926   1.402       .  A
C3916      C3917   1.385       .  A
C3916      H3928   1.081       .  S
C3917      H3929   1.082       .  S
C3918      C3919   1.378       .  A
C3918      H3930   1.074       .  S
C3919      H3931   1.080       .  S
C3920      C3921   1.385       .  A
C3920      H3932   1.082       .  S
C3921      H3933   1.082       .  S
C3922      C3923   1.378       .  A
C3923      H3935   1.081       .  S
C3924      C4229   1.498       .  S
C3925      C3938   1.495       .  S
C3926      C4298   1.473       .  S
C3927      C4324   1.483       .  S
C3938      C3943   1.410       .  A
C3939      C3940   1.400       .  A
C3940      H3945   1.086       .  S
C3943      H3944   1.085       .  S
N3946      C3951   1.354       .  A
N3946      C3950   1.342       .  A
N3946      H3978   1.041       .  S
N3947      C3954   1.364       .  A
N3947      C3955   1.367       .  A
N3948      C3953   1.354       .  A
N3948      C3952   1.359       .  A
N3948      H3979   1.041       .  S
N3949      C3956   1.348       .  A
N3949      C3957   1.337       .  A
C3950      C3958   1.384       .  A
C3950      C3966   1.404       .  A
C3951      C3967   1.413       .  A
C3951      C3959   1.384       .  A
C3952      C3960   1.392       .  A
C3952      C3969   1.432       .  A
C3953      C3968   1.419       .  A
C3953      C3961   1.385       .  A
C3954      C3966   1.420       .  A
C3954      C3962   1.384       .  A
C3955      C3969   1.422       .  A
C3955      C3963   1.382       .  A
C3956      C3964   1.380       .  A
C3956      C3967   1.393       .  A
C3957      C3965   1.383       .  A
C3957      C3968   1.382       .  A
C3958      C3959   1.382       .  A
C3960      C3961   1.381       .  A
C3960      H3972   1.079       .  S
C3961      H3973   1.080       .  S
C3962      C3963   1.377       .  A
C3962      H3974   1.082       .  S
C3963      H3975   1.081       .  S
C3964      C3965   1.371       .  A
C3964      H3976   1.080       .  S
C3965      H3977   1.083       .  S
C3966      C4254   1.515       .  S
C3967      C4242   1.494       .  S
C3968      C4342   1.472       .  S
C3969      C4269   1.528       .  S
N3980      C3985   1.352       .  A
N3980      C3984   1.347       .  A
N3980      H4012   1.044       .  S
N3981      C3988   1.344       .  A
N3981      C3989   1.349       .  A
N3982      C3987   1.350       .  A
N3982      C3986   1.352       .  A
N3982      H4013   1.043       .  S
N3983      C3990   1.351       .  A
N3983      C3991   1.345       .  A
C3984      C3992   1.387       .  A
C3984      C4000   1.414       .  A
C3985      C4001   1.412       .  A
C3985      C3993   1.382       .  A
C3986      C3994   1.381       .  A
C3986      C4003   1.413       .  A
C3987      C4002   1.412       .  A
C3987      C3995   1.387       .  A
C3988      C4000   1.408       .  A
C3988      C3996   1.385       .  A
C3989      C4003   1.402       .  A
C3989      C3997   1.381       .  A
C3990      C3998   1.380       .  A
C3990      C4001   1.409       .  A
C3991      C3999   1.387       .  A
C3991      C4002   1.407       .  A
C3992      C3993   1.384       .  A
C3992      H4004   1.081       .  S
C3993      H4005   1.080       .  S
C3994      C3995   1.380       .  A
C3994      H4006   1.074       .  S
C3995      H4007   1.081       .  S
C3996      C3997   1.386       .  A
C3996      H4008   1.082       .  S
C3997      H4009   1.082       .  S
C3998      C3999   1.382       .  A
C3998      H4010   1.080       .  S
C3999      H4011   1.081       .  S
C4000      C4246   1.488       .  S
C4001      C4250   1.504       .  S
C4002      C4283   1.471       .  S
C4003      C4326   1.485       .  S
N4014      C4019   1.348       .  A
N4014      C4018   1.349       .  A
N4014      H4046   1.045       .  S
N4015      C4022   1.351       .  A
N4015      C4023   1.347       .  A
N4016      C4021   1.351       .  A
N4016      C4020   1.356       .  A
N4016      H4047   1.044       .  S
N4017      C4024   1.352       .  A
N4017      C4025   1.351       .  A
C4018      C4026   1.383       .  A
C4018      C4034   1.408       .  A
C4019      C4035   1.413       .  A
C4019      C4027   1.387       .  A
C4020      C4028   1.385       .  A
C4020      C4037   1.415       .  A
C4021      C4036   1.416       .  A
C4021      C4029   1.381       .  A
C4022      C4034   1.407       .  A
C4023      C4037   1.414       .  A
C4023      C4031   1.390       .  A
C4024      C4032   1.383       .  A
C4024      C4035   1.416       .  A
C4025      C4033   1.383       .  A
C4025      C4036   1.412       .  A
C4026      C4027   1.381       .  A
C4026      H4038   1.080       .  S
C4027      H4039   1.080       .  S
C4028      C4029   1.382       .  A
C4028      H4040   1.081       .  S
C4029      H4041   1.075       .  S
C4030      H4042   1.081       .  S
C4032      C4033   1.385       .  A
C4032      H4044   1.081       .  S
C4033      H4045   1.082       .  S
C4035      C4235   1.502       .  S
C4036      C4297   1.494       .  S
C4037      C4325   1.486       .  S
N4048      C4053   1.349       .  A
N4048      C4052   1.354       .  A
N4048      H4080   1.040       .  S
N4049      C4056   1.344       .  A
N4049      C4057   1.338       .  A
N4050      C4055   1.359       .  A
N4050      C4054   1.355       .  A
N4050      H4081   1.032       .  S
N4051      C4058   1.355       .  A
N4051      C4059   1.355       .  A
C4052      C4060   1.382       .  A
C4052      C4068   1.412       .  A
C4053      C4069   1.416       .  A
C4053      C4061   1.388       .  A
C4054      C4062   1.379       .  A
C4054      C4071   1.414       .  A
C4055      C4070   1.439       .  A
C4055      C4063   1.396       .  A
C4056      C4068   1.389       .  A
C4056      C4064   1.382       .  A
C4057      C4071   1.378       .  A
C4057      C4065   1.381       .  A
C4058      C4069   1.422       .  A
C4059      C4067   1.384       .  A
C4059      C4070   1.421       .  A
C4060      C4061   1.383       .  A
C4062      C4063   1.380       .  A
C4062      H4074   1.081       .  S
C4063      H4075   1.079       .  S
C4064      C4065   1.372       .  A
C4064      H4076   1.082       .  S
C4065      H4077   1.083       .  S
C4066      H4078   1.081       .  S
C4068      C4237   1.485       .  S
C4070      C4344   1.518       .  S
C4071      C4313   1.472       .  S
N4082      C4087   1.351       .  A
N4082      C4086   1.344       .  A
N4082      H4114   1.036       .  S
N4083      C4090   1.358       .  A
N4083      C4091   1.357       .  A
N4084      C4089   1.353       .  A
N4084      C4088   1.345       .  A
N4084      H4115   1.027       .  S
N4085      C4092   1.347       .  A
N4085      C4093   1.345       .  A
C4086      C4094   1.383       .  A
C4086      C4102   1.401       .  A
C4087      C4103   1.407       .  A
C4087      C4095   1.384       .  A
C4088      C4096   1.384       .  A
C4088      C4105   1.399       .  A
C4089      C4104   1.410       .  A
C4089      C4097   1.389       .  A
C4090      C4102   1.408       .  A
C4090      C4098   1.385       .  A
C4091      C4105   1.403       .  A
C4091      C4099   1.378       .  A
C4092      C4100   1.377       .  A
C4092      C4103   1.398       .  A
C4093      C4101   1.390       .  A
C4093      C4104   1.409       .  A
C4094      C4095   1.377       .  A
C4094      H4106   1.081       .  S
C4095      H4107   1.079       .  S
C4096      C4097   1.368       .  A
C4096      H4108   1.079       .  S
C4097      H4109   1.079       .  S
C4098      C4099   1.373       .  A
C4098      H4110   1.082       .  S
C4099      H4111   1.083       .  S
C4100      C4101   1.376       .  A
C4102      C4150   1.517       .  S
C4103      C4234   1.488       .  S
C4104      C4296   1.469       .  S
C4105      C4286   1.467       .  S
N4116      C4121   1.349       .  A
N4116      C4120   1.353       .  A
N4116      H4148   1.042       .  S
N4117      C4124   1.358       .  A
N4117      C4125   1.353       .  A
N4118      C4123   1.366       .  A
N4118      C4122   1.368       .  A
N4118      H4149   1.041       .  S
N4119      C4126   1.362       .  A
N4119      C4127   1.362       .  A
C4120      C4128   1.385       .  A
C4120      C4136   1.412       .  A
C4121      C4137   1.405       .  A
C4121      C4129   1.381       .  A
C4122      C4130   1.388       .  A
C4122      C4139   1.443       .  A
C4123      C4138   1.443       .  A
C4123      C4131   1.389       .  A
C4124      C4136   1.417       .  A
C4124      C4132   1.378       .  A
C4125      C4139   1.416       .  A
C4125      C4133   1.379       .  A
C4126      C4134   1.384       .  A
C4126      C4137   1.415       .  A
C4127      C4135   1.380       .  A
C4127      C4138   1.419       .  A
C4128      C4129   1.377       .  A
C4130      C4131   1.381       .  A
C4130      H4142   1.081       .  S
C4131      H4143   1.080       .  S
C4132      C4133   1.375       .  A
C4134      C4135   1.376       .  A
C4134      H4146   1.082       .  S
C4135      H4147   1.080       .  S
C4136      C4238   1.509       .  S
C4137      C4154   1.526       .  S
C4138      C4267   1.531       .  S
C4139      C4315   1.533       .  S
C4150      C4151   1.418       .  A
C4150      C4155   1.426       .  A
C4151      C4152   1.403       .  A
C4151      C4212   1.487       .  S
C4152      H4157   1.087       .  S
C4153      C4154   1.420       .  A
C4153      C4178   1.483       .  S
C4155      H4156   1.084       .  S
N4158      C4163   1.342       .  A
N4158      C4162   1.354       .  A
N4158      H4190   1.042       .  S
N4159      C4166   1.344       .  A
N4159      C4167   1.333       .  A
N4160      C4165   1.356       .  A
N4160      C4164   1.353       .  A
N4160      H4191   1.042       .  S
N4161      C4168   1.361       .  A
N4161      C4169   1.362       .  A
C4162      C4170   1.386       .  A
C4162      C4178   1.416       .  A
C4163      C4179   1.402       .  A
C4163      C4171   1.384       .  A
C4164      C4172   1.382       .  A
C4164      C4181   1.413       .  A
C4165      C4180   1.424       .  A
C4165      C4173   1.393       .  A
C4166      C4178   1.399       .  A
C4166      C4174   1.386       .  A
C4167      C4181   1.391       .  A
C4167      C4175   1.386       .  A
C4168      C4179   1.412       .  A
C4169      C4177   1.384       .  A
C4169      C4180   1.422       .  A
C4170      C4171   1.381       .  A
C4172      C4173   1.378       .  A
C4172      H4184   1.082       .  S
C4173      H4185   1.079       .  S
C4174      C4175   1.378       .  A
C4174      H4186   1.082       .  S
C4175      H4187   1.082       .  S
C4176      H4188   1.082       .  S
C4180      C4341   1.511       .  S
C4181      C4268   1.466       .  S
N4192      C4197   1.351       .  A
N4192      C4196   1.346       .  A
N4192      H4224   1.043       .  S
N4193      C4200   1.348       .  A
N4193      C4201   1.348       .  A
N4194      C4199   1.348       .  A
N4194      C4198   1.348       .  A
N4194      H4225   1.043       .  S
N4195      C4202   1.349       .  A
N4195      C4203   1.346       .  A
C4196      C4204   1.388       .  A
C4196      C4212   1.414       .  A
C4197      C4213   1.408       .  A
C4197      C4205   1.382       .  A
C4198      C4206   1.383       .  A
C4198      C4215   1.408       .  A
C4199      C4214   1.404       .  A
C4199      C4207   1.388       .  A
C4200      C4212   1.416       .  A
C4200      C4208   1.387       .  A
C4201      C4215   1.415       .  A
C4201      C4209   1.386       .  A
C4202      C4213   1.407       .  A
C4203      C4211   1.386       .  A
C4203      C4214   1.407       .  A
C4204      C4205   1.379       .  A
C4204      H4216   1.081       .  S
C4205      H4217   1.081       .  S
C4206      C4207   1.373       .  A
C4206      H4218   1.076       .  S
C4207      H4219   1.081       .  S
C4208      C4209   1.388       .  A
C4208      H4220   1.082       .  S
C4209      H4221   1.082       .  S
C4210      H4222   1.081       .  S
C4214      C4327   1.465       .  S
C4215      C4284   1.482       .  S
C4226      C4227   1.419       .  A
C4228      C4229   1.402       .  A
C4228      H4233   1.086       .  S
C4229      C4230   1.418   1_655  A
C4231      H4232   1.085       .  S
C4234      C4239   1.410       .  A
C4235      C4236   1.405       .  A
C4236      H4241   1.085       .  S
C4239      H4240   1.085       .  S
C4242      C4243   1.418       .  A
C4244      H4249   1.085       .  S
C4245      C4246   1.417       .  A
C4246      C4247   1.405       .  A
C4247      H4248   1.086       .  S
C4250      C4251   1.423       .  A
C4250      C4255   1.418       .  A
C4251      C4252   1.400       .  A
C4252      H4257   1.086       .  S
C4253      C4254   1.417       .  A
C4255      H4256   1.085       .  S
O4258      C4266   1.269       .  A
O4258     Co4278   1.892       .  S
O4259      C4267   1.272       .  A
O4259     Co4279   2.018       .  S
O4260      C4268   1.284       .  A
O4260     Co4280   2.029       .  S
O4261      C4269   1.276       .  A
O4261     Co4281   2.045       .  S
O4262      C4268   1.276       .  A
O4262     Co4279   1.914       .  S
O4263      C4269   1.266       .  A
O4263     Co4278   2.004       .  S
O4264      C4267   1.267       .  A
O4264     Co4281   2.021       .  S
O4265      C4266   1.294       .  A
O4265     Co4280   2.067       .  S
O4270      C4283   1.266       .  A
O4270     Co4278   2.000       .  S
O4271      C4284   1.233       .  A
O4271     Co4279   1.969       .  S
O4272      C4285   1.249       .  A
O4272     Co4280   1.982       .  S
O4273      C4286   1.268       .  A
O4273     Co4281   1.991       .  S
O4274      C4286   1.271       .  A
O4274     Co4279   1.996       .  S
O4275      C4285   1.252       .  A
O4275     Co4278   1.991       .  S
O4276      C4283   1.260       .  A
O4276     Co4281   1.972       .  S
O4277      C4284   1.253       .  A
O4277     Co4280   2.018       .  S
Co4278     O4282   1.943       .  S
Co4279     O4282   1.936       .  S
Co4280     O4282   2.248       .  S
Co4281     O4282   2.073       .  S
O4287      C4295   1.253       .  A
O4287     Co4307   1.991       .  S
O4288      C4296   1.273       .  A
O4289      C4297   1.253       .  A
O4289     Co4309   2.025       .  S
O4290      C4298   1.261       .  A
O4290     Co4310   1.978       .  S
O4291      C4297   1.238       .  A
O4291     Co4308   1.981       .  S
O4292      C4298   1.266       .  A
O4293      C4296   1.261       .  A
O4293     Co4310   1.958       .  S
O4294      C4295   1.251       .  A
O4294     Co4309   1.979       .  S
O4299      C4312   1.266       .  A
O4300      C4313   1.279       .  A
O4300     Co4308   1.915       .  S
O4301      C4314   1.298       .  A
O4301     Co4309   2.086       .  S
O4302      C4315   1.269       .  A
O4302     Co4310   2.034       .  S
O4303      C4315   1.273       .  A
O4304      C4314   1.264       .  A
O4304     Co4307   1.872       .  S
O4305      C4312   1.265       .  A
O4305     Co4310   2.002       .  S
O4306      C4313   1.288       .  A
O4306     Co4309   2.037       .  S
Co4307     O4311   1.951       .  S
Co4308     O4311   1.932       .  S
Co4309     O4311   2.245       .  S
O4316      C4324   1.246       .  A
O4316     Co4336   1.969       .  S
O4317      C4325   1.282       .  A
O4318      C4326   1.254       .  A
O4318     Co4338   1.977       .  S
O4319      C4327   1.264       .  A
O4319     Co4339   1.990       .  S
O4320      C4326   1.259       .  A
O4320     Co4337   2.010       .  S
O4321      C4327   1.263       .  A
O4322      C4325   1.260       .  A
O4322     Co4339   1.949       .  S
O4323      C4324   1.265       .  A
O4323     Co4338   2.028       .  S
O4328      C4341   1.250       .  A
O4329      C4342   1.275       .  A
O4329     Co4337   1.888       .  S
O4330      C4343   1.261       .  A
O4330     Co4338   2.007       .  S
O4331      C4344   1.264       .  A
O4331     Co4339   2.012       .  S
O4332      C4344   1.264       .  A
O4333      C4343   1.254       .  A
O4333     Co4336   1.957       .  S
O4334      C4341   1.275       .  A
O4334     Co4339   2.055       .  S
O4335      C4342   1.285       .  A
O4335     Co4338   2.053       .  S
Co4336     O4340   1.972       .  S
Co4337     O4340   1.972       .  S
Co4338     O4340   2.171       .  S
