geometry optimzed in LAMMPS
_audit_creation_date              2020-11-30 
_audit_creation_method            'lammps2cif' 
_symmetry_space_group_name_H-M    'P1' 
_symmetry_Int_Tables_number       1 
_symmetry_cell_setting            triclinic 
loop_ 
_symmetry_equiv_pos_as_xyz 
  x,y,z 
_cell_length_a                    47.09605157 
_cell_length_b                    47.09549449070341 
_cell_length_c                    47.08890820305958 
_cell_angle_alpha                 90.00098500563097 
_cell_angle_beta                  89.9985016848852 
_cell_angle_gamma                 89.9996868504343 
loop_ 
_atom_site_label 
_atom_site_type_symbol 
_atom_site_fract_x 
_atom_site_fract_y 
_atom_site_fract_z 
_atom_site_charge 
O1          O  0.47627188  0.99998104  0.16568248    -0.72200
O2          O  0.47628806  0.50002061  0.08431515    -0.72300
O3          O  0.47628182  0.45931739  0.12497881    -0.72300
O4          O  0.47628178  0.04068438  0.12502017    -0.72400
O5          O  0.02371073  0.04067821  0.12498059    -0.72300
O6          O  0.02371057  0.45931211  0.12501933    -0.72300
O7          O  0.02370572  0.99997563  0.08431518    -0.72300
O8          O  0.02371324  0.50001520  0.16568434    -0.72300
Ni9        Ni  0.47458053  0.50000102  0.12499907     1.25400
Ni10       Ni  0.02542088  0.49999521  0.12500000     1.25400
C11         C  0.99999804  0.49999814  0.17894863     0.89900
C12         C  0.99999090  0.99999808  0.07105119     0.89900
C13         C  0.49999486  0.44604957  0.12499975     0.89900
C14         C  0.49999807  0.05394635  0.12500106     0.90100
O15         O  0.47628418  0.25001539  0.08431713    -0.72200
O16         O  0.47628270  0.24997882  0.16568662    -0.72300
O17         O  0.47628527  0.29068054  0.12502251    -0.72300
O18         O  0.47628387  0.20931376  0.12498398    -0.72400
O19         O  0.02371269  0.20931411  0.12502317    -0.72300
O20         O  0.02371409  0.29068044  0.12498243    -0.72300
O21         O  0.02371213  0.25001884  0.16568667    -0.72300
O22         O  0.02371353  0.24997613  0.08431705    -0.72300
Ni23       Ni  0.47457847  0.24999708  0.12500238     1.25400
Ni24       Ni  0.02541866  0.24999719  0.12500209     1.25400
C25         C  0.99999918  0.24999591  0.07105223     0.89900
C26         C  0.99999691  0.24999999  0.17895105     0.89900
C27         C  0.49999971  0.30394568  0.12500397     0.89900
C28         C  0.49999850  0.19604885  0.12500472     0.90100
O29         O  0.22627648  0.99998407  0.16569022    -0.72200
O30         O  0.22627824  0.50002097  0.08432246    -0.72300
O31         O  0.22628568  0.45931813  0.12498752    -0.72300
O32         O  0.22627525  0.04068628  0.12502487    -0.72400
O33         O  0.27370413  0.04068298  0.12498175    -0.72300
O34         O  0.27371452  0.45931796  0.12502113    -0.72300
O35         O  0.27370177  0.99997934  0.08431857    -0.72300
O36         O  0.27371479  0.50002153  0.16568620    -0.72300
Ni37       Ni  0.22456804  0.00000269  0.12500543     1.25400
Ni38       Ni  0.27540832  0.00000030  0.12500211     1.25400
C39         C  0.24999190  0.00000305  0.17895313     0.89900
C40         C  0.24998729  0.99999905  0.07105483     0.89900
C41         C  0.25000056  0.44605283  0.12500487     0.89900
C42         C  0.24999071  0.05394966  0.12500345     0.90100
O43         O  0.27372285  0.20932030  0.12502819    -0.72200
O44         O  0.27371132  0.29068654  0.12498648    -0.72300
O45         O  0.27371388  0.25002548  0.16569191    -0.72300
O46         O  0.27372042  0.24998142  0.08432158    -0.72400
O47         O  0.22629105  0.25001403  0.08431923    -0.72300
O48         O  0.22628439  0.24997886  0.16568905    -0.72300
O49         O  0.22628250  0.29068037  0.12502361    -0.72300
O50         O  0.22629399  0.20931346  0.12498619    -0.72300
Ni51       Ni  0.27542264  0.25000368  0.12500707     1.25400
Ni52       Ni  0.22458241  0.24999643  0.12500434     1.25400
C53         C  0.25001043  0.19605183  0.12500768     0.89900
C54         C  0.24999522  0.30394868  0.12500582     0.89900
C55         C  0.24999792  0.25000326  0.17895505     0.89900
C56         C  0.25000671  0.24999660  0.07105544     0.90100
O57         O  0.02371738  0.50001226  0.91569255    -0.72200
O58         O  0.02372209  0.99997828  0.83431984    -0.72300
O59         O  0.02372225  0.04067823  0.87498886    -0.72300
O60         O  0.02372241  0.45931151  0.87502615    -0.72400
O61         O  0.47629355  0.45931395  0.87498026    -0.72300
O62         O  0.47629344  0.04068037  0.87502883    -0.72300
O63         O  0.47630149  0.50001969  0.83431723    -0.72300
O64         O  0.47628828  0.99997460  0.91568884    -0.72300
Ni65       Ni  0.02542613  0.99999499  0.87500520     1.25400
Ni66       Ni  0.47458933  0.49999707  0.87500186     1.25400
C67         C  0.00000226  0.99999269  0.92895356     0.89900
C68         C  0.00001827  0.50000059  0.82105560     0.89900
C69         C  0.00000839  0.05394444  0.87501043     0.89900
C70         C  0.00000729  0.44604760  0.87500417     0.90100
O71         O  0.02371966  0.24997032  0.83431248    -0.72200
O72         O  0.02372176  0.25002313  0.91568168    -0.72300
O73         O  0.02372063  0.20931350  0.87502250    -0.72300
O74         O  0.02371634  0.29068048  0.87497201    -0.72400
O75         O  0.47628749  0.29067847  0.87501470    -0.72300
O76         O  0.47629170  0.20931247  0.87498611    -0.72300
O77         O  0.47629232  0.24998269  0.91568552    -0.72300
O78         O  0.47629019  0.25000896  0.83431448    -0.72300
Ni79       Ni  0.02542501  0.24999696  0.87499688     1.25400
Ni80       Ni  0.47458480  0.24999555  0.87500010     1.25400
C81         C  0.00000494  0.24998753  0.82104874     0.89900
C82         C  0.00000795  0.25000502  0.92894846     0.89900
C83         C  0.00000652  0.19604784  0.87500649     0.89900
C84         C  0.00000110  0.30394458  0.87499357     0.90100
O85         O  0.27372307  0.45931224  0.87502370    -0.72200
O86         O  0.27372067  0.04067929  0.87499039    -0.72300
O87         O  0.27372341  0.50001162  0.91569176    -0.72300
O88         O  0.27372221  0.99998034  0.83432201    -0.72400
O89         O  0.22629929  0.50002190  0.83432064    -0.72300
O90         O  0.22629104  0.99997409  0.91569135    -0.72300
O91         O  0.22629177  0.04068043  0.87502968    -0.72300
O92         O  0.22629426  0.45931434  0.87498220    -0.72300
Ni93       Ni  0.27543084  0.49999572  0.87500745     1.25400
Ni94       Ni  0.22458547  0.99999783  0.87500641     1.25400
C95         C  0.25000811  0.44604802  0.87500323     0.89900
C96         C  0.25000630  0.05394484  0.87500960     0.89900
C97         C  0.25000784  0.49999081  0.92895526     0.89900
C98         C  0.25000819  0.00000328  0.82105697     0.90100
O99         O  0.22628913  0.20931131  0.87498291    -0.72200
O100        O  0.22628904  0.29067872  0.87501859    -0.72300
O101        O  0.22628649  0.25001122  0.83431657    -0.72300
O102        O  0.22628705  0.24997758  0.91568628    -0.72400
O103        O  0.27371640  0.25001690  0.91568486    -0.72300
O104        O  0.27371594  0.24997146  0.83431422    -0.72300
O105        O  0.27371782  0.29067745  0.87497730    -0.72300
O106        O  0.27371800  0.20931182  0.87502071    -0.72300
Ni107      Ni  0.22458231  0.24999475  0.87500120     1.25400
Ni108      Ni  0.27542245  0.24999447  0.87499929     1.25400
C109        C  0.25000393  0.19604658  0.87500123     0.89900
C110        C  0.25000392  0.30394337  0.87499763     0.89900
C111        C  0.25000078  0.24998995  0.82105074     0.89900
C112        C  0.25000168  0.24999762  0.92895055     0.90100
O113        O  0.04066864  0.47628009  0.37497741    -0.72200
O114        O  0.45930280  0.47628584  0.37501779    -0.72300
O115        O  0.99996965  0.47628598  0.33431285    -0.72300
O116        O  0.50000471  0.47627982  0.41568262    -0.72400
O117        O  0.99999376  0.02370979  0.41568672    -0.72300
O118        O  0.50001657  0.02371582  0.33431680    -0.72300
O119        O  0.45931937  0.02371496  0.37498641    -0.72300
O120        O  0.04068600  0.02370949  0.37501734    -0.72300
Ni121      Ni  0.99998598  0.47457750  0.37499746     1.25400
Ni122      Ni  0.50000395  0.02541815  0.37500193     1.25400
C123        C  0.05394860  0.99999358  0.37499876     0.89900
C124        C  0.44605197  0.00000118  0.37500088     0.89900
C125        C  0.99999474  0.50000183  0.32105016     0.89900
C126        C  0.49998778  0.49999389  0.42894945     0.90100
O127        O  0.04068074  0.27371937  0.37501858    -0.72200
O128        O  0.45931359  0.27371765  0.37498283    -0.72300
O129        O  0.99997838  0.27371849  0.41568512    -0.72300
O130        O  0.50001732  0.27372102  0.33431613    -0.72400
O131        O  0.99997840  0.22629090  0.33431381    -0.72300
O132        O  0.50001953  0.22628837  0.41568230    -0.72300
O133        O  0.45931555  0.22628832  0.37502054    -0.72300
O134        O  0.04068094  0.22628994  0.37497638    -0.72300
Ni135      Ni  0.99999736  0.27542498  0.37500064     1.25400
Ni136      Ni  0.49999857  0.22458400  0.37499809     1.25400
C137        C  0.05394583  0.25000446  0.37499708     0.89900
C138        C  0.44604923  0.25000234  0.37500331     0.89900
C139        C  0.99999911  0.25000281  0.42894812     0.89900
C140        C  0.99999850  0.25000639  0.32105057     0.90100
O141        O  0.29067068  0.02371106  0.37501911    -0.72200
O142        O  0.20930406  0.02370528  0.37498490    -0.72300
O143        O  0.24995086  0.02371326  0.41568721    -0.72300
O144        O  0.25000594  0.02370547  0.33431795    -0.72400
O145        O  0.24996619  0.47627540  0.33432060    -0.72300
O146        O  0.25001021  0.47628321  0.41569064    -0.72300
O147        O  0.20930382  0.47627575  0.37502894    -0.72300
O148        O  0.29066974  0.47628198  0.37498227    -0.72300
Ni149      Ni  0.24998497  0.02541433  0.37500220     1.25400
Ni150      Ni  0.24998695  0.47457353  0.37500583     1.25400
C151        C  0.30393880  0.99999742  0.37499233     0.89900
C152        C  0.19604220  0.99998923  0.37501471     0.89900
C153        C  0.24994827  0.99999954  0.42895374     0.89900
C154        C  0.24998534  0.99998957  0.32105474     0.90100
O155        O  0.24997755  0.27370839  0.41569200    -0.72200
O156        O  0.25001536  0.27371880  0.33432340    -0.72300
O157        O  0.20931251  0.27371192  0.37498885    -0.72300
O158        O  0.29067937  0.27371287  0.37502712    -0.72400
O159        O  0.29067945  0.22628353  0.37498039    -0.72300
O160        O  0.20931380  0.22628255  0.37502204    -0.72300
O161        O  0.24997608  0.22628872  0.33431663    -0.72300
O162        O  0.25001830  0.22627827  0.41568540    -0.72300
Ni163      Ni  0.24999591  0.27541869  0.37500806     1.25400
Ni164      Ni  0.24999668  0.22457781  0.37500084     1.25400
C165        C  0.25000148  0.24999174  0.42895301     0.89900
C166        C  0.24999499  0.25000545  0.32105555     0.89900
C167        C  0.19604805  0.24999682  0.37500523     0.89900
C168        C  0.30394463  0.24999803  0.37500434     0.90100
O169        O  0.45932992  0.02370860  0.62498753    -0.72200
O170        O  0.04069634  0.02370496  0.62501912    -0.72300
O171        O  0.50003103  0.02370880  0.58431871    -0.72300
O172        O  0.99999186  0.02370602  0.66568856    -0.72400
O173        O  0.50003886  0.47627602  0.66568681    -0.72300
O174        O  0.99999176  0.47627891  0.58431630    -0.72300
O175        O  0.04069829  0.47627577  0.62497568    -0.72300
O176        O  0.45933224  0.47627932  0.62502597    -0.72300
Ni177      Ni  0.00001254  0.02541257  0.62500379     1.25400
Ni178      Ni  0.00001508  0.47457193  0.62500129     1.25400
C179        C  0.44606767  0.49999432  0.62500696     0.89900
C180        C  0.05396433  0.49998990  0.62499467     0.89900
C181        C  0.00001344  0.49999433  0.57105266     0.89900
C182        C  0.00002052  0.49999083  0.67895249     0.90100
O183        O  0.99997989  0.22626928  0.58431406    -0.72200
O184        O  0.50002127  0.22627569  0.66568303    -0.72300
O185        O  0.45931926  0.22627667  0.62502003    -0.72300
O186        O  0.04068631  0.22627158  0.62497716    -0.72400
O187        O  0.04068786  0.27370079  0.62501421    -0.72300
O188        O  0.45932239  0.27370613  0.62497723    -0.72300
O189        O  0.99998408  0.27370571  0.66568107    -0.72300
O190        O  0.50002239  0.27369931  0.58431132    -0.72300
Ni191      Ni  0.00000200  0.22456770  0.62499874     1.25400
Ni192      Ni  0.00000469  0.27540845  0.62499588     1.25400
C193        C  0.99999736  0.24998327  0.57104817     0.89900
C194        C  0.00000124  0.24999134  0.67894669     0.89900
C195        C  0.44605602  0.24999246  0.62499856     0.89900
C196        C  0.05395263  0.24998586  0.62499500     0.90100
O197        O  0.20933639  0.02370095  0.62498294    -0.72200
O198        O  0.29070250  0.02369601  0.62502959    -0.72300
O199        O  0.25004388  0.02370207  0.58432248    -0.72300
O200        O  0.24999658  0.02369677  0.66569110    -0.72400
O201        O  0.25003145  0.47626677  0.66568873    -0.72300
O202        O  0.24999642  0.47627202  0.58431802    -0.72300
O203        O  0.29069806  0.47626663  0.62498149    -0.72300
O204        O  0.20933166  0.47627160  0.62502342    -0.72300
Ni205      Ni  0.25002037  0.02540429  0.62500693     1.25400
Ni206      Ni  0.25001450  0.47456348  0.62500300     1.25400
C207        C  0.19606777  0.49998704  0.62500636     0.89900
C208        C  0.30396435  0.49998067  0.62499967     0.89900
C209        C  0.25001903  0.49998820  0.57105562     0.89900
C210        C  0.25000935  0.49998152  0.67895469     0.90100
O211        O  0.20932609  0.27370395  0.62497868    -0.72200
O212        O  0.29069156  0.27369932  0.62502045    -0.72300
O213        O  0.25003297  0.27370047  0.58431581    -0.72300
O214        O  0.24998628  0.27370141  0.66568487    -0.72400
O215        O  0.25002381  0.22627137  0.66568439    -0.72300
O216        O  0.24999063  0.22627034  0.58431579    -0.72300
O217        O  0.29069030  0.22626988  0.62498029    -0.72300
O218        O  0.20932320  0.22627468  0.62501841    -0.72300
Ni219      Ni  0.25000933  0.27540673  0.62500011     1.25400
Ni220      Ni  0.25000690  0.22456587  0.62499986     1.25400
C221        C  0.19605921  0.24999032  0.62499883     0.89900
C222        C  0.30395584  0.24998436  0.62499823     0.89900
C223        C  0.25001402  0.24998513  0.57105151     0.89900
C224        C  0.25000327  0.24998643  0.67894922     0.90100
C225        C  0.33442161  0.24998494  0.62499294    -0.16300
C226        C  0.36001818  0.24998962  0.62499134     0.07700
C227        C  0.38999392  0.24999437  0.62499421     0.09600
C228        C  0.41559044  0.24999491  0.62499726    -0.17200
C229        C  0.08441992  0.24998612  0.62499414    -0.16300
C230        C  0.11001740  0.24998983  0.62499568     0.07700
C231        C  0.13999465  0.24999312  0.62499871     0.09600
C232        C  0.16559208  0.24999280  0.62499967    -0.17200
C233        C  0.33443087  0.49997997  0.62499040    -0.16300
C234        C  0.36002787  0.49998366  0.62498765     0.07700
C235        C  0.39000437  0.49999020  0.62499385     0.09600
C236        C  0.41560132  0.49999431  0.62500201    -0.17200
C237        C  0.16560142  0.49998864  0.62500726    -0.16300
C238        C  0.14000443  0.49998890  0.62500385     0.07700
C239        C  0.11002791  0.49998857  0.62499636     0.09600
C240        C  0.08443086  0.49998875  0.62499247    -0.14000
C241        C  0.25001166  0.24998821  0.45941771    -0.16300
C242        C  0.25001877  0.24998601  0.48501480     0.07700
C243        C  0.25002105  0.24998460  0.51498979     0.09600
C244        C  0.25001883  0.24998447  0.54058686    -0.17200
C245        C  0.24989388  0.00000205  0.45941930    -0.16300
C246        C  0.24988660  0.00000079  0.48501691     0.07700
C247        C  0.25002192  0.49999628  0.51499254     0.09600
C248        C  0.25002206  0.49999149  0.54059013    -0.17200
C249        C  0.99999713  0.25000049  0.45941308    -0.16300
C250        C  0.99999178  0.24999401  0.48501036     0.07700
C251        C  0.99998650  0.24998543  0.51498570     0.09600
C252        C  0.99998868  0.24998158  0.54058303    -0.17200
C253        C  0.33441126  0.24999717  0.37500587    -0.16300
C254        C  0.36000839  0.24999602  0.37500731     0.07700
C255        C  0.38998520  0.24999716  0.37500818     0.09600
C256        C  0.41558240  0.25000018  0.37500693    -0.17200
C257        C  0.16558178  0.24999560  0.37500422    -0.16300
C258        C  0.13998492  0.24999565  0.37500206     0.07700
C259        C  0.11000869  0.24999901  0.37499885     0.09600
C260        C  0.08441190  0.25000306  0.37499708    -0.17200
C261        C  0.00001666  0.49999509  0.54058682    -0.16300
C262        C  0.00003283  0.99999409  0.51498910     0.07700
C263        C  0.00004620  0.99999240  0.48501300     0.09600
C264        C  0.99999541  0.49999209  0.45941522    -0.17200
C265        C  0.33440787  0.99999905  0.37497205    -0.16300
C266        C  0.36000636  0.99999993  0.37496496     0.07700
C267        C  0.38998512  0.00000146  0.37497417     0.09600
C268        C  0.41558344  0.00000243  0.37498856    -0.17200
C269        C  0.08441297  0.99999066  0.37501219    -0.16300
C270        C  0.11000865  0.99998759  0.37502782     0.07700
C271        C  0.13997391  0.49998588  0.37499936     0.09600
C272        C  0.16557841  0.99998650  0.37503320    -0.17200
C273        C  0.24999948  0.24998727  0.79058528    -0.16300
C274        C  0.24999795  0.24998619  0.76498776     0.07700
C275        C  0.24999755  0.24998618  0.73501207     0.09600
C276        C  0.24999931  0.24998643  0.70941458    -0.17200
C277        C  0.25001021  0.00000609  0.79059142    -0.16300
C278        C  0.25001246  0.50000217  0.76499382     0.07700
C279        C  0.25000504  0.49999126  0.73501796     0.09600
C280        C  0.25000352  0.49998263  0.70942033    -0.17200
C281        C  0.25000563  0.33441008  0.87499876    -0.16300
C282        C  0.25000738  0.36000733  0.87500174     0.07700
C283        C  0.25000726  0.38998409  0.87500453     0.09600
C284        C  0.25000701  0.41558133  0.87500451    -0.17200
C285        C  0.25000602  0.08441084  0.87500644    -0.16300
C286        C  0.25000520  0.11000766  0.87500228     0.07700
C287        C  0.25000527  0.13998375  0.87499932     0.09600
C288        C  0.25000493  0.16558057  0.87499951    -0.17200
C289        C  0.99999951  0.24999197  0.70941214    -0.16300
C290        C  0.00000133  0.24998883  0.73500971     0.07700
C291        C  0.00000472  0.24998483  0.76498551     0.09600
C292        C  0.00000534  0.24998416  0.79058313    -0.17200
C293        C  0.00002219  0.49999134  0.70941832    -0.16300
C294        C  0.00002329  0.49999605  0.73501605     0.07700
C295        C  0.00002379  0.50000181  0.76499212     0.09600
C296        C  0.00002263  0.50000322  0.79058983    -0.17200
C297        C  0.99999910  0.33441087  0.87499690    -0.16300
C298        C  0.99999875  0.36000788  0.87500224     0.07700
C299        C  0.50000159  0.38998426  0.87500660     0.09600
C300        C  0.00000513  0.41558128  0.87500661    -0.17200
C301        C  0.00000721  0.16558145  0.87501133    -0.16300
C302        C  0.00000842  0.13998438  0.87501409     0.07700
C303        C  0.00000974  0.11000790  0.87501495     0.09600
C304        C  0.00000968  0.08441083  0.87501366    -0.17200
C305        C  0.24999482  0.25000623  0.20942030    -0.16300
C306        C  0.24999204  0.25000860  0.23501768     0.07700
C307        C  0.24999120  0.25000995  0.26499314     0.09600
C308        C  0.24999270  0.25000908  0.29059047    -0.17200
C309        C  0.25000181  0.24999743  0.95941676    -0.16300
C310        C  0.25000388  0.24999594  0.98501476     0.07700
C311        C  0.25000726  0.24999449  0.01499122     0.09600
C312        C  0.25000857  0.24999461  0.04058923    -0.17200
C313        C  0.24999263  0.00000237  0.20941859    -0.16300
C314        C  0.24998759  0.99999890  0.23501611     0.07700
C315        C  0.25000322  0.49999238  0.26499161     0.09600
C316        C  0.24997991  0.99998856  0.29058933    -0.17200
C317        C  0.24999006  0.99999503  0.04058987    -0.16300
C318        C  0.24999149  0.49999059  0.01499264     0.07700
C319        C  0.25000641  0.99998688  0.98501739     0.09600
C320        C  0.25000697  0.99998712  0.95942016    -0.17200
C321        C  0.24999235  0.33441526  0.12500797    -0.16300
C322        C  0.24999579  0.36001243  0.12500911     0.07700
C323        C  0.25000133  0.38998909  0.12500847     0.09600
C324        C  0.25000218  0.41558626  0.12500673    -0.17200
C325        C  0.25001475  0.16558571  0.12500812    -0.16300
C326        C  0.25001315  0.13998881  0.12500732     0.07700
C327        C  0.25000398  0.11001264  0.12500560     0.09600
C328        C  0.24999466  0.08441575  0.12500421    -0.17200
C329        C  0.99999575  0.25000306  0.20941597    -0.16300
C330        C  0.99999594  0.25000552  0.23501319     0.07700
C331        C  0.99999816  0.25000704  0.26498842     0.09600
C332        C  0.99999936  0.25000725  0.29058564    -0.17200
C333        C  0.00001032  0.25000811  0.95941440    -0.16300
C334        C  0.00001020  0.25000674  0.98501223     0.07700
C335        C  0.00000551  0.25000193  0.01498844     0.09600
C336        C  0.00000076  0.24999794  0.04058628    -0.17200
C337        C  0.00000227  0.50000332  0.29058468    -0.16300
C338        C  0.49996183  0.00000185  0.26498721     0.07700
C339        C  0.99996638  0.99999956  0.23501153     0.09600
C340        C  0.99999785  0.49999842  0.20941395    -0.17200
C341        C  0.99999972  0.99999187  0.95941803    -0.16300
C342        C  0.99999612  0.49999300  0.98501497     0.07700
C343        C  0.99999993  0.49999525  0.01498974     0.09600
C344        C  0.99999045  0.99999714  0.04058670    -0.17200
C345        C  0.49999211  0.41558305  0.12500268    -0.16300
C346        C  0.49999311  0.38998591  0.12500616     0.07700
C347        C  0.49999675  0.36000932  0.12500853     0.09600
C348        C  0.49999937  0.33441219  0.12500747    -0.17200
C349        C  0.50000238  0.08441253  0.12500325    -0.16300
C350        C  0.50000376  0.11000947  0.12500539     0.07700
C351        C  0.00000186  0.13998572  0.12500706     0.09600
C352        C  0.49999941  0.16558266  0.12500688    -0.17200
O353        O  0.47628380  0.49998119  0.16568379    -0.72200
O354        O  0.47627615  0.00002073  0.08431566    -0.72300
O355        O  0.47627297  0.95931687  0.12497923    -0.72300
O356        O  0.47629062  0.54068395  0.12501939    -0.72400
O357        O  0.02371948  0.54067867  0.12498098    -0.72300
O358        O  0.02370180  0.95931259  0.12501893    -0.72300
O359        O  0.02371769  0.49997558  0.08431560    -0.72300
O360        O  0.02370132  0.00001520  0.16568586    -0.72300
Ni361      Ni  0.47457029  0.00000098  0.12499921     1.25400
Ni362      Ni  0.02541068  0.99999523  0.12500002     1.25400
C363        C  0.99998473  0.99999808  0.17894871     0.89900
C364        C  0.00000329  0.49999799  0.07105116     0.89900
C365        C  0.49998650  0.94604954  0.12499979     0.89900
C366        C  0.50000645  0.55394636  0.12500084     0.90100
O367        O  0.47628417  0.75001313  0.08431714    -0.72200
O368        O  0.47628267  0.74997680  0.16568662    -0.72300
O369        O  0.47627920  0.79067805  0.12502232    -0.72300
O370        O  0.47628983  0.70931125  0.12498405    -0.72400
O371        O  0.02371875  0.70931652  0.12502321    -0.72300
O372        O  0.02370808  0.79068288  0.12498239    -0.72300
O373        O  0.02371217  0.75002095  0.16568667    -0.72300
O374        O  0.02371350  0.74997821  0.08431705    -0.72300
Ni375      Ni  0.47457846  0.74999445  0.12500236     1.25400
Ni376      Ni  0.02541868  0.74999976  0.12500208     1.25400
C377        C  0.99999915  0.74999580  0.07105223     0.89900
C378        C  0.99999695  0.75000008  0.17895105     0.89900
C379        C  0.49999220  0.80394565  0.12500384     0.89900
C380        C  0.50000589  0.69604882  0.12500480     0.90100
O381        O  0.22628530  0.49998401  0.16569062    -0.72200
O382        O  0.22627224  0.00002099  0.08431995    -0.72300
O383        O  0.22627229  0.95931882  0.12498631    -0.72300
O384        O  0.22628856  0.54068689  0.12502598    -0.72400
O385        O  0.27371743  0.54068221  0.12498045    -0.72300
O386        O  0.27370111  0.95931726  0.12502242    -0.72300
O387        O  0.27370777  0.49997924  0.08431604    -0.72300
O388        O  0.27370595  0.00002152  0.16568679    -0.72300
Ni389      Ni  0.22457859  0.50000262  0.12500675     1.25400
Ni390      Ni  0.27541889  0.50000024  0.12500070     1.25400
C391        C  0.25000067  0.50000304  0.17895301     0.89900
C392        C  0.24999135  0.49999905  0.07105483     0.89900
C393        C  0.24998644  0.94605279  0.12500502     0.89900
C394        C  0.25000473  0.55394957  0.12500334     0.90100
O395        O  0.27372582  0.70932132  0.12502819    -0.72200
O396        O  0.27370838  0.79068750  0.12498647    -0.72300
O397        O  0.27371390  0.75002639  0.16569191    -0.72300
O398        O  0.27372043  0.74998232  0.08432160    -0.72400
O399        O  0.22629105  0.75001277  0.08431929    -0.72300
O400        O  0.22628441  0.74997759  0.16568905    -0.72300
O401        O  0.22627957  0.79067905  0.12502361    -0.72300
O402        O  0.22629694  0.70931214  0.12498619    -0.72300
Ni403      Ni  0.27542266  0.75000475  0.12500707     1.25400
Ni404      Ni  0.22458243  0.74999499  0.12500435     1.25400
C405        C  0.25001406  0.69605171  0.12500768     0.89900
C406        C  0.24999164  0.80394851  0.12500577     0.89900
C407        C  0.24999795  0.75000310  0.17895505     0.89900
C408        C  0.25000670  0.74999648  0.07105548     0.90100
O409        O  0.02371790  0.00001225  0.91568984    -0.72200
O410        O  0.02373093  0.49997823  0.83432346    -0.72300
O411        O  0.02372524  0.54067848  0.87499234    -0.72300
O412        O  0.02371942  0.95931181  0.87502264    -0.72400
O413        O  0.47629061  0.95931365  0.87498353    -0.72300
O414        O  0.47629630  0.54068002  0.87502538    -0.72300
O415        O  0.47629275  0.00001969  0.83432087    -0.72300
O416        O  0.47628782  0.49997468  0.91568621    -0.72300
Ni417      Ni  0.02542969  0.49999496  0.87500870     1.25400
Ni418      Ni  0.47458591  0.99999708  0.87500526     1.25400
C419        C  0.00000045  0.49999275  0.92895359     0.89900
C420        C  0.00000728  0.00000061  0.82105560     0.89900
C421        C  0.00001109  0.55394438  0.87501044     0.89900
C422        C  0.00000460  0.94604759  0.87500401     0.90100
O423        O  0.02371969  0.74997237  0.83431257    -0.72200
O424        O  0.02372178  0.75002502  0.91568174    -0.72300
O425        O  0.02372180  0.70931466  0.87502253    -0.72300
O426        O  0.02371514  0.79068169  0.87497209    -0.72400
O427        O  0.47628630  0.79067702  0.87501469    -0.72300
O428        O  0.47629295  0.70931100  0.87498624    -0.72300
O429        O  0.47629235  0.74998049  0.91568553    -0.72300
O430        O  0.47629022  0.75000671  0.83431451    -0.72300
Ni431      Ni  0.02542504  0.74999855  0.87499697     1.25400
Ni432      Ni  0.47458484  0.74999369  0.87500013     1.25400
C433        C  0.00000498  0.74998745  0.82104880     0.89900
C434        C  0.00000797  0.75000482  0.92894849     0.89900
C435        C  0.00000828  0.69604769  0.87500653     0.89900
C436        C  0.99999930  0.80394446  0.87499354     0.90100
O437        O  0.27371762  0.95931201  0.87502281    -0.72200
O438        O  0.27372605  0.54067905  0.87499128    -0.72300
O439        O  0.27372057  0.00001161  0.91569028    -0.72300
O440        O  0.27372876  0.49998029  0.83432264    -0.72400
O441        O  0.22629275  0.00002184  0.83432125    -0.72300
O442        O  0.22629387  0.49997399  0.91568994    -0.72300
O443        O  0.22629715  0.54068058  0.87502891    -0.72300
O444        O  0.22628881  0.95931456  0.87498317    -0.72300
Ni445      Ni  0.27542575  0.99999574  0.87500638     1.25400
Ni446      Ni  0.22459055  0.49999778  0.87500538     1.25400
C447        C  0.25000244  0.94604799  0.87500335     0.89900
C448        C  0.25001188  0.55394480  0.87500965     0.89900
C449        C  0.25000599  0.99999089  0.92895523     0.89900
C450        C  0.25001497  0.50000331  0.82105698     0.90100
O451        O  0.22628758  0.70931187  0.87498294    -0.72200
O452        O  0.22629057  0.79067931  0.87501845    -0.72300
O453        O  0.22628648  0.75001211  0.83431655    -0.72300
O454        O  0.22628705  0.74997866  0.91568630    -0.72400
O455        O  0.27371642  0.75001597  0.91568490    -0.72300
O456        O  0.27371596  0.74997034  0.83431423    -0.72300
O457        O  0.27371938  0.79067679  0.87497718    -0.72300
O458        O  0.27371647  0.70931116  0.87502075    -0.72300
Ni459      Ni  0.22458223  0.74999565  0.87500119     1.25400
Ni460      Ni  0.27542246  0.74999354  0.87499929     1.25400
C461        C  0.25000215  0.69604653  0.87500125     0.89900
C462        C  0.25000572  0.80394332  0.87499749     0.89900
C463        C  0.25000079  0.74998980  0.82105074     0.89900
C464        C  0.25000169  0.74999769  0.92895058     0.90100
O465        O  0.04068254  0.97627990  0.37497317    -0.72200
O466        O  0.45931664  0.97628588  0.37502173    -0.72300
O467        O  0.99997366  0.97628581  0.33431282    -0.72300
O468        O  0.50003033  0.97627982  0.41568256    -0.72400
O469        O  0.99996798  0.52370979  0.41568673    -0.72300
O470        O  0.50001271  0.52371598  0.33431683    -0.72300
O471        O  0.45930545  0.52371508  0.37498220    -0.72300
O472        O  0.04067213  0.52370950  0.37502154    -0.72300
Ni473      Ni  0.00000059  0.97457740  0.37499736     1.25400
Ni474      Ni  0.49998928  0.52541822  0.37500195     1.25400
C475        C  0.05393532  0.49999367  0.37499757     0.89900
C476        C  0.44603871  0.50000120  0.37500220     0.89900
C477        C  0.99998865  0.00000166  0.32105017     0.89900
C478        C  0.50002155  0.99999390  0.42894943     0.90100
O479        O  0.04068072  0.77371938  0.37501856    -0.72200
O480        O  0.45931358  0.77371762  0.37498285    -0.72300
O481        O  0.99997842  0.77371847  0.41568514    -0.72300
O482        O  0.50001721  0.77372100  0.33431614    -0.72400
O483        O  0.99997839  0.72629091  0.33431381    -0.72300
O484        O  0.50001953  0.72628838  0.41568233    -0.72300
O485        O  0.45931555  0.72628832  0.37502053    -0.72300
O486        O  0.04068082  0.72628997  0.37497652    -0.72300
Ni487      Ni  0.99999736  0.77542490  0.37500065     1.25400
Ni488      Ni  0.49999859  0.72458403  0.37499811     1.25400
C489        C  0.05394578  0.75000445  0.37499712     0.89900
C490        C  0.44604922  0.75000233  0.37500331     0.89900
C491        C  0.99999909  0.75000281  0.42894815     0.89900
C492        C  0.99999852  0.75000639  0.32105057     0.90100
O493        O  0.29066625  0.52371128  0.37501845    -0.72200
O494        O  0.20929970  0.52370510  0.37498511    -0.72300
O495        O  0.24996641  0.52371319  0.41568688    -0.72300
O496        O  0.25000215  0.52370541  0.33431768    -0.72400
O497        O  0.24997005  0.97627544  0.33432075    -0.72300
O498        O  0.24999469  0.97628329  0.41569085    -0.72300
O499        O  0.20930827  0.97627553  0.37502853    -0.72300
O500        O  0.29067416  0.97628214  0.37498289    -0.72300
Ni501      Ni  0.24998281  0.52541425  0.37500194     1.25400
Ni502      Ni  0.24998915  0.97457357  0.37500596     1.25400
C503        C  0.30393331  0.49999747  0.37499947     0.89900
C504        C  0.19603671  0.49998928  0.37500724     0.89900
C505        C  0.24999262  0.49999952  0.42895347     0.89900
C506        C  0.24998760  0.49998949  0.32105452     0.90100
O507        O  0.24997752  0.77370844  0.41569198    -0.72200
O508        O  0.25001530  0.77371873  0.33432341    -0.72300
O509        O  0.20931248  0.77371182  0.37498886    -0.72300
O510        O  0.29067927  0.77371283  0.37502699    -0.72400
O511        O  0.29067942  0.72628347  0.37498040    -0.72300
O512        O  0.20931381  0.72628242  0.37502204    -0.72300
O513        O  0.24997611  0.72628862  0.33431661    -0.72300
O514        O  0.25001832  0.72627830  0.41568541    -0.72300
Ni515      Ni  0.24999583  0.77541869  0.37500804     1.25400
Ni516      Ni  0.24999668  0.72457771  0.37500084     1.25400
C517        C  0.25000146  0.74999179  0.42895300     0.89900
C518        C  0.24999501  0.75000538  0.32105555     0.89900
C519        C  0.19604805  0.74999671  0.37500523     0.89900
C520        C  0.30394457  0.74999799  0.37500430     0.90100
O521        O  0.45933334  0.52370868  0.62498863    -0.72200
O522        O  0.04069991  0.52370511  0.62501807    -0.72300
O523        O  0.50003316  0.52370889  0.58431868    -0.72300
O524        O  0.00000048  0.52370599  0.66568857    -0.72400
O525        O  0.50003019  0.97627609  0.66568672    -0.72300
O526        O  0.99998960  0.97627886  0.58431624    -0.72300
O527        O  0.04069480  0.97627580  0.62497653    -0.72300
O528        O  0.45932877  0.97627914  0.62502468    -0.72300
Ni529      Ni  0.00001672  0.52541272  0.62500379     1.25400
Ni530      Ni  0.00001096  0.97457192  0.62500116     1.25400
C531        C  0.44606466  0.99999420  0.62500942     0.89900
C532        C  0.05396124  0.99998987  0.62499193     0.89900
C533        C  0.00001135  0.99999429  0.57105267     0.89900
C534        C  0.00000747  0.99999088  0.67895246     0.90100
O535        O  0.99997986  0.72626916  0.58431408    -0.72200
O536        O  0.50002129  0.72627579  0.66568303    -0.72300
O537        O  0.45931928  0.72627658  0.62502003    -0.72300
O538        O  0.04068629  0.72627161  0.62497718    -0.72400
O539        O  0.04068788  0.77370084  0.62501409    -0.72300
O540        O  0.45932231  0.77370605  0.62497724    -0.72300
O541        O  0.99998409  0.77370582  0.66568106    -0.72300
O542        O  0.50002234  0.77369922  0.58431133    -0.72300
Ni543      Ni  0.00000195  0.72456763  0.62499875     1.25400
Ni544      Ni  0.00000470  0.77540846  0.62499586     1.25400
C545        C  0.99999737  0.74998316  0.57104820     0.89900
C546        C  0.00000119  0.74999145  0.67894669     0.89900
C547        C  0.44605600  0.74999236  0.62499857     0.89900
C548        C  0.05395263  0.74998590  0.62499496     0.90100
O549        O  0.20933411  0.52370098  0.62498738    -0.72200
O550        O  0.29070018  0.52369596  0.62502549    -0.72300
O551        O  0.25003886  0.52370205  0.58432252    -0.72300
O552        O  0.24999398  0.52369677  0.66569121    -0.72400
O553        O  0.25003393  0.97626679  0.66568856    -0.72300
O554        O  0.25000152  0.97627204  0.58431791    -0.72300
O555        O  0.29070038  0.97626653  0.62498557    -0.72300
O556        O  0.20933401  0.97627175  0.62501876    -0.72300
Ni557      Ni  0.25001711  0.52540430  0.62500702     1.25400
Ni558      Ni  0.25001777  0.97456352  0.62500281     1.25400
C559        C  0.19606952  0.99998708  0.62499706     0.89900
C560        C  0.30396611  0.99998064  0.62500830     0.89900
C561        C  0.25001803  0.99998823  0.57105557     0.89900
C562        C  0.25001443  0.99998153  0.67895457     0.90100
O563        O  0.20932609  0.77370395  0.62497867    -0.72200
O564        O  0.29069154  0.77369921  0.62502051    -0.72300
O565        O  0.25003301  0.77370042  0.58431582    -0.72300
O566        O  0.24998619  0.77370139  0.66568489    -0.72400
O567        O  0.25002373  0.72627132  0.66568438    -0.72300
O568        O  0.24999067  0.72627027  0.58431578    -0.72300
O569        O  0.29069032  0.72626974  0.62498035    -0.72300
O570        O  0.20932324  0.72627465  0.62501839    -0.72300
Ni571      Ni  0.25000933  0.77540672  0.62500011     1.25400
Ni572      Ni  0.25000690  0.72456577  0.62499986     1.25400
C573        C  0.19605923  0.74999029  0.62499882     0.89900
C574        C  0.30395583  0.74998425  0.62499831     0.89900
C575        C  0.25001406  0.74998508  0.57105152     0.89900
C576        C  0.25000321  0.74998638  0.67894921     0.90100
C577        C  0.33442158  0.74998492  0.62499294    -0.16300
C578        C  0.36001814  0.74998964  0.62499120     0.07700
C579        C  0.38999389  0.74999426  0.62499416     0.09600
C580        C  0.41559041  0.74999476  0.62499727    -0.17200
C581        C  0.08441993  0.74998618  0.62499409    -0.16300
C582        C  0.11001742  0.74998985  0.62499555     0.07700
C583        C  0.13999468  0.74999299  0.62499867     0.09600
C584        C  0.16559211  0.74999268  0.62499968    -0.17200
C585        C  0.33443139  0.99997996  0.62501174    -0.16300
C586        C  0.36002768  0.99998372  0.62501696     0.07700
C587        C  0.39000306  0.99999022  0.62502078     0.09600
C588        C  0.41559936  0.99999424  0.62501772    -0.17200
C589        C  0.16560188  0.99998855  0.62498503    -0.16300
C590        C  0.14000418  0.99998878  0.62497370     0.07700
C591        C  0.11002652  0.99998860  0.62496885     0.09600
C592        C  0.08442882  0.99998880  0.62497643    -0.14000
C593        C  0.25001156  0.74998827  0.45941771    -0.16300
C594        C  0.25001875  0.74998607  0.48501480     0.07700
C595        C  0.25002109  0.74998466  0.51498979     0.09600
C596        C  0.25001886  0.74998447  0.54058686    -0.17200
C597        C  0.25000519  0.50000223  0.45941908    -0.16300
C598        C  0.25001564  0.50000105  0.48501670     0.07700
C599        C  0.24993551  0.99999615  0.51499266     0.09600
C600        C  0.24998744  0.99999152  0.54059016    -0.17200
C601        C  0.99999716  0.75000052  0.45941314    -0.16300
C602        C  0.99999181  0.74999407  0.48501043     0.07700
C603        C  0.99998652  0.74998545  0.51498577     0.09600
C604        C  0.99998872  0.74998149  0.54058309    -0.17200
C605        C  0.33441122  0.74999714  0.37500587    -0.16300
C606        C  0.36000837  0.74999594  0.37500731     0.07700
C607        C  0.38998519  0.74999718  0.37500818     0.09600
C608        C  0.41558239  0.75000019  0.37500693    -0.17200
C609        C  0.16558179  0.74999553  0.37500422    -0.16300
C610        C  0.13998493  0.74999553  0.37500206     0.07700
C611        C  0.11000868  0.74999885  0.37499884     0.09600
C612        C  0.08441187  0.75000297  0.37499709    -0.17200
C613        C  0.00001882  0.99999509  0.54058685    -0.16300
C614        C  0.00001572  0.49999421  0.51498904     0.07700
C615        C  0.00000630  0.49999252  0.48501297     0.09600
C616        C  0.00004206  0.99999209  0.45941524    -0.17200
C617        C  0.33440012  0.49999915  0.37499994    -0.16300
C618        C  0.35999739  0.50000007  0.37500407     0.07700
C619        C  0.38997438  0.50000153  0.37500861     0.09600
C620        C  0.41557171  0.50000244  0.37500765    -0.17200
C621        C  0.08440120  0.49999073  0.37499310    -0.16300
C622        C  0.10999788  0.49998771  0.37499321     0.07700
C623        C  0.13998290  0.99998572  0.37503869     0.09600
C624        C  0.16557064  0.49998664  0.37500505    -0.17200
C625        C  0.24999951  0.74998711  0.79058528    -0.16300
C626        C  0.24999798  0.74998599  0.76498776     0.07700
C627        C  0.24999758  0.74998590  0.73501207     0.09600
C628        C  0.24999933  0.74998629  0.70941458    -0.17200
C629        C  0.25001650  0.50000615  0.79059143    -0.16300
C630        C  0.25001202  0.00000209  0.76499380     0.07700
C631        C  0.25001280  0.99999116  0.73501790     0.09600
C632        C  0.25001313  0.99998263  0.70942025    -0.17200
C633        C  0.25000713  0.83441001  0.87499861    -0.16300
C634        C  0.25000519  0.86000725  0.87500173     0.07700
C635        C  0.25000157  0.88998402  0.87500472     0.09600
C636        C  0.25000068  0.91558127  0.87500474    -0.17200
C637        C  0.25001226  0.58441080  0.87500640    -0.16300
C638        C  0.25001099  0.61000763  0.87500210     0.07700
C639        C  0.25000743  0.63998370  0.87499914     0.09600
C640        C  0.25000348  0.66558053  0.87499946    -0.17200
C641        C  0.99999950  0.74999205  0.70941215    -0.16300
C642        C  0.00000136  0.74998889  0.73500972     0.07700
C643        C  0.00000475  0.74998490  0.76498554     0.09600
C644        C  0.00000538  0.74998418  0.79058316    -0.17200
C645        C  0.99999915  0.99999139  0.70941831    -0.16300
C646        C  0.99999630  0.99999609  0.73501606     0.07700
C647        C  0.00000039  0.00000182  0.76499213     0.09600
C648        C  0.00000582  0.00000328  0.79058984    -0.17200
C649        C  0.99999642  0.83441078  0.87499672    -0.16300
C650        C  0.99999748  0.86000779  0.87500202     0.07700
C651        C  0.50000105  0.88998420  0.87500638     0.09600
C652        C  0.00000351  0.91558123  0.87500640    -0.17200
C653        C  0.00000983  0.66558130  0.87501133    -0.16300
C654        C  0.00000971  0.63998424  0.87501409     0.07700
C655        C  0.00001029  0.61000779  0.87501495     0.09600
C656        C  0.00001133  0.58441074  0.87501366    -0.17200
C657        C  0.24999484  0.75000612  0.20942030    -0.16300
C658        C  0.24999206  0.75000862  0.23501769     0.07700
C659        C  0.24999123  0.75001002  0.26499314     0.09600
C660        C  0.24999273  0.75000910  0.29059047    -0.17200
C661        C  0.25000181  0.74999749  0.95941682    -0.16300
C662        C  0.25000391  0.74999600  0.98501481     0.07700
C663        C  0.25000724  0.74999456  0.01499129     0.09600
C664        C  0.25000850  0.74999463  0.04058928    -0.17200
C665        C  0.25000197  0.50000224  0.20941841    -0.16300
C666        C  0.25000348  0.49999865  0.23501592     0.07700
C667        C  0.24998050  0.99999266  0.26499183     0.09600
C668        C  0.24999744  0.49998836  0.29058911    -0.17200
C669        C  0.24998812  0.49999517  0.04058987    -0.16300
C670        C  0.24999907  0.99999050  0.01499263     0.07700
C671        C  0.24999987  0.49998668  0.98501741     0.09600
C672        C  0.25000554  0.49998687  0.95942019    -0.17200
C673        C  0.24998741  0.83441510  0.12500788    -0.16300
C674        C  0.24998799  0.86001228  0.12500923     0.07700
C675        C  0.24998813  0.88998896  0.12500875     0.09600
C676        C  0.24998654  0.91558616  0.12500708    -0.17200
C677        C  0.25001980  0.66558561  0.12500812    -0.16300
C678        C  0.25002092  0.63998874  0.12500732     0.07700
C679        C  0.25001715  0.61001257  0.12500560     0.09600
C680        C  0.25001021  0.58441568  0.12500417    -0.17200
C681        C  0.99999578  0.75000330  0.20941597    -0.16300
C682        C  0.99999592  0.75000580  0.23501319     0.07700
C683        C  0.99999805  0.75000727  0.26498842     0.09600
C684        C  0.99999934  0.75000730  0.29058564    -0.17200
C685        C  0.00001034  0.75000782  0.95941441    -0.16300
C686        C  0.00001022  0.75000658  0.98501224     0.07700
C687        C  0.00000554  0.75000191  0.01498844     0.09600
C688        C  0.00000076  0.74999783  0.04058628    -0.17200
C689        C  0.99997107  0.00000310  0.29058473    -0.16300
C690        C  0.50000445  0.50000210  0.26498714     0.07700
C691        C  0.00000128  0.49999974  0.23501144     0.09600
C692        C  0.99997800  0.99999831  0.20941405    -0.17200
C693        C  0.99999602  0.49999200  0.95941804    -0.16300
C694        C  0.99999539  0.99999287  0.98501497     0.07700
C695        C  0.99999126  0.99999527  0.01498975     0.09600
C696        C  0.00000336  0.49999706  0.04058669    -0.17200
C697        C  0.49998515  0.91558302  0.12500281    -0.16300
C698        C  0.49998621  0.88998589  0.12500621     0.07700
C699        C  0.49998765  0.86000930  0.12500853     0.09600
C700        C  0.49998922  0.83441217  0.12500742    -0.17200
C701        C  0.50000941  0.58441253  0.12500302    -0.16300
C702        C  0.50001072  0.61000944  0.12500521     0.07700
C703        C  0.00001098  0.63998569  0.12500703     0.09600
C704        C  0.50000953  0.66558262  0.12500693    -0.17200
O705        O  0.97627181  0.99998104  0.16568246    -0.72200
O706        O  0.97628809  0.50002061  0.08431516    -0.72300
O707        O  0.97628173  0.45931740  0.12497881    -0.72300
O708        O  0.97628185  0.04068438  0.12502017    -0.72400
O709        O  0.52371067  0.04067820  0.12498059    -0.72300
O710        O  0.52371067  0.45931211  0.12501933    -0.72300
O711        O  0.52370574  0.99997563  0.08431519    -0.72300
O712        O  0.52371333  0.50001520  0.16568436    -0.72300
Ni713      Ni  0.97458054  0.50000103  0.12499907     1.25400
Ni714      Ni  0.52542095  0.49999521  0.12500000     1.25400
C715        C  0.49999811  0.49999814  0.17894863     0.89900
C716        C  0.49999094  0.99999808  0.07105119     0.89900
C717        C  0.99999476  0.44604956  0.12499975     0.89900
C718        C  0.99999813  0.05394635  0.12500106     0.90100
O719        O  0.97628412  0.25001537  0.08431712    -0.72200
O720        O  0.97628258  0.24997884  0.16568661    -0.72300
O721        O  0.97628525  0.29068053  0.12502238    -0.72300
O722        O  0.97628383  0.20931374  0.12498399    -0.72400
O723        O  0.52371274  0.20931409  0.12502318    -0.72300
O724        O  0.52371410  0.29068044  0.12498242    -0.72300
O725        O  0.52371225  0.25001884  0.16568667    -0.72300
O726        O  0.52371357  0.24997613  0.08431705    -0.72300
Ni727      Ni  0.97457839  0.24999708  0.12500236     1.25400
Ni728      Ni  0.52541873  0.24999719  0.12500208     1.25400
C729        C  0.49999923  0.24999591  0.07105223     0.89900
C730        C  0.49999703  0.24999999  0.17895105     0.89900
C731        C  0.99999969  0.30394568  0.12500392     0.89900
C732        C  0.99999848  0.19604885  0.12500472     0.90100
O733        O  0.72627657  0.99998407  0.16569022    -0.72200
O734        O  0.72627830  0.50002097  0.08432246    -0.72300
O735        O  0.72628576  0.45931816  0.12498753    -0.72300
O736        O  0.72627518  0.04068629  0.12502487    -0.72400
O737        O  0.77370406  0.04068297  0.12498175    -0.72300
O738        O  0.77371459  0.45931794  0.12502112    -0.72300
O739        O  0.77370172  0.99997934  0.08431856    -0.72300
O740        O  0.77371488  0.50002153  0.16568619    -0.72300
Ni741      Ni  0.72456808  0.00000269  0.12500543     1.25400
Ni742      Ni  0.77540837  0.00000030  0.12500210     1.25400
C743        C  0.74999199  0.00000305  0.17895313     0.89900
C744        C  0.74998724  0.99999905  0.07105483     0.89900
C745        C  0.75000061  0.44605283  0.12500487     0.89900
C746        C  0.74999065  0.05394966  0.12500345     0.90100
O747        O  0.77372287  0.20932030  0.12502819    -0.72200
O748        O  0.77371128  0.29068654  0.12498648    -0.72300
O749        O  0.77371393  0.25002548  0.16569190    -0.72300
O750        O  0.77372045  0.24998142  0.08432157    -0.72400
O751        O  0.72629111  0.25001403  0.08431924    -0.72300
O752        O  0.72628446  0.24997886  0.16568905    -0.72300
O753        O  0.72628248  0.29068038  0.12502361    -0.72300
O754        O  0.72629403  0.20931346  0.12498619    -0.72300
Ni755      Ni  0.77542261  0.25000368  0.12500706     1.25400
Ni756      Ni  0.72458246  0.24999643  0.12500435     1.25400
C757        C  0.75001046  0.19605182  0.12500768     0.89900
C758        C  0.74999520  0.30394869  0.12500582     0.89900
C759        C  0.74999799  0.25000326  0.17895505     0.89900
C760        C  0.75000675  0.24999660  0.07105543     0.90100
O761        O  0.52371743  0.50001226  0.91569256    -0.72200
O762        O  0.52372217  0.99997828  0.83431982    -0.72300
O763        O  0.52372229  0.04067822  0.87498886    -0.72300
O764        O  0.52372240  0.45931150  0.87502615    -0.72400
O765        O  0.97629356  0.45931395  0.87498026    -0.72300
O766        O  0.97629339  0.04068037  0.87502883    -0.72300
O767        O  0.97630150  0.50001969  0.83431725    -0.72300
O768        O  0.97628829  0.99997460  0.91568886    -0.72300
Ni769      Ni  0.52542620  0.99999498  0.87500521     1.25400
Ni770      Ni  0.97458939  0.49999707  0.87500186     1.25400
C771        C  0.50000223  0.99999269  0.92895356     0.89900
C772        C  0.50001829  0.50000063  0.82105560     0.89900
C773        C  0.50000845  0.05394444  0.87501043     0.89900
C774        C  0.50000728  0.44604760  0.87500417     0.90100
O775        O  0.52371961  0.24997032  0.83431247    -0.72200
O776        O  0.52372171  0.25002313  0.91568169    -0.72300
O777        O  0.52372052  0.20931349  0.87502250    -0.72300
O778        O  0.52371632  0.29068047  0.87497201    -0.72400
O779        O  0.97628748  0.29067846  0.87501470    -0.72300
O780        O  0.97629178  0.20931246  0.87498611    -0.72300
O781        O  0.97629234  0.24998269  0.91568554    -0.72300
O782        O  0.97629021  0.25000896  0.83431447    -0.72300
Ni783      Ni  0.52542494  0.24999696  0.87499687     1.25400
Ni784      Ni  0.97458477  0.24999555  0.87500010     1.25400
C785        C  0.50000490  0.24998753  0.82104874     0.89900
C786        C  0.50000790  0.25000502  0.92894847     0.89900
C787        C  0.50000641  0.19604783  0.87500649     0.89900
C788        C  0.50000110  0.30394459  0.87499357     0.90100
O789        O  0.77372314  0.45931225  0.87502371    -0.72200
O790        O  0.77372071  0.04067929  0.87499038    -0.72300
O791        O  0.77372338  0.50001162  0.91569175    -0.72300
O792        O  0.77372219  0.99998032  0.83432200    -0.72400
O793        O  0.72629925  0.50002190  0.83432065    -0.72300
O794        O  0.72629098  0.99997409  0.91569136    -0.72300
O795        O  0.72629181  0.04068043  0.87502968    -0.72300
O796        O  0.72629432  0.45931433  0.87498220    -0.72300
Ni797      Ni  0.77543087  0.49999572  0.87500747     1.25400
Ni798      Ni  0.72458551  0.99999782  0.87500641     1.25400
C799        C  0.75000818  0.44604802  0.87500323     0.89900
C800        C  0.75000635  0.05394484  0.87500960     0.89900
C801        C  0.75000781  0.49999081  0.92895526     0.89900
C802        C  0.75000816  0.00000327  0.82105697     0.90100
O803        O  0.72628914  0.20931130  0.87498291    -0.72200
O804        O  0.72628903  0.29067871  0.87501859    -0.72300
O805        O  0.72628638  0.25001122  0.83431658    -0.72300
O806        O  0.72628702  0.24997758  0.91568630    -0.72400
O807        O  0.77371638  0.25001689  0.91568485    -0.72300
O808        O  0.77371585  0.24997146  0.83431421    -0.72300
O809        O  0.77371782  0.29067746  0.87497730    -0.72300
O810        O  0.77371804  0.20931177  0.87502071    -0.72300
Ni811      Ni  0.72458225  0.24999475  0.87500121     1.25400
Ni812      Ni  0.77542247  0.24999445  0.87499928     1.25400
C813        C  0.75000395  0.19604655  0.87500123     0.89900
C814        C  0.75000390  0.30394337  0.87499763     0.89900
C815        C  0.75000067  0.24998995  0.82105074     0.89900
C816        C  0.75000167  0.24999762  0.92895055     0.90100
O817        O  0.54066862  0.47628009  0.37497741    -0.72200
O818        O  0.95930281  0.47628583  0.37501779    -0.72300
O819        O  0.49996967  0.47628598  0.33431285    -0.72300
O820        O  0.00000466  0.47627982  0.41568262    -0.72400
O821        O  0.49999387  0.02370979  0.41568672    -0.72300
O822        O  0.00001664  0.02371582  0.33431680    -0.72300
O823        O  0.95931933  0.02371496  0.37498638    -0.72300
O824        O  0.54068605  0.02370949  0.37501732    -0.72300
Ni825      Ni  0.49998597  0.47457751  0.37499746     1.25400
Ni826      Ni  0.00000390  0.02541815  0.37500193     1.25400
C827        C  0.55394862  0.99999356  0.37499876     0.89900
C828        C  0.94605197  0.00000117  0.37500088     0.89900
C829        C  0.49999477  0.50000183  0.32105016     0.89900
C830        C  0.99998773  0.49999389  0.42894945     0.90100
O831        O  0.54068075  0.27371937  0.37501857    -0.72200
O832        O  0.95931354  0.27371765  0.37498283    -0.72300
O833        O  0.49997851  0.27371849  0.41568512    -0.72300
O834        O  0.00001723  0.27372102  0.33431613    -0.72400
O835        O  0.49997847  0.22629090  0.33431381    -0.72300
O836        O  0.00001964  0.22628837  0.41568230    -0.72300
O837        O  0.95931561  0.22628833  0.37502056    -0.72300
O838        O  0.54068088  0.22628993  0.37497640    -0.72300
Ni839      Ni  0.49999743  0.27542497  0.37500064     1.25400
Ni840      Ni  0.99999863  0.22458400  0.37499809     1.25400
C841        C  0.55394580  0.25000444  0.37499708     0.89900
C842        C  0.94604924  0.25000232  0.37500332     0.89900
C843        C  0.49999913  0.25000281  0.42894812     0.89900
C844        C  0.49999861  0.25000639  0.32105057     0.90100
O845        O  0.79067067  0.02371106  0.37501913    -0.72200
O846        O  0.70930412  0.02370528  0.37498488    -0.72300
O847        O  0.74995080  0.02371326  0.41568721    -0.72300
O848        O  0.75000602  0.02370547  0.33431795    -0.72400
O849        O  0.74996623  0.47627541  0.33432050    -0.72300
O850        O  0.75001017  0.47628321  0.41569057    -0.72300
O851        O  0.70930374  0.47627574  0.37502875    -0.72300
O852        O  0.79066971  0.47628197  0.37498223    -0.72300
Ni853      Ni  0.74998500  0.02541433  0.37500220     1.25400
Ni854      Ni  0.74998690  0.47457353  0.37500571     1.25400
C855        C  0.80393878  0.99999742  0.37499233     0.89900
C856        C  0.69604225  0.99998923  0.37501471     0.89900
C857        C  0.74994816  0.99999954  0.42895374     0.89900
C858        C  0.74998532  0.99998957  0.32105474     0.90100
O859        O  0.74997755  0.27370839  0.41569200    -0.72200
O860        O  0.75001524  0.27371880  0.33432340    -0.72300
O861        O  0.70931242  0.27371193  0.37498887    -0.72300
O862        O  0.79067931  0.27371287  0.37502710    -0.72400
O863        O  0.79067946  0.22628353  0.37498041    -0.72300
O864        O  0.70931381  0.22628256  0.37502202    -0.72300
O865        O  0.74997619  0.22628872  0.33431663    -0.72300
O866        O  0.75001822  0.22627827  0.41568540    -0.72300
Ni867      Ni  0.74999583  0.27541869  0.37500806     1.25400
Ni868      Ni  0.74999670  0.22457782  0.37500084     1.25400
C869        C  0.75000140  0.24999174  0.42895301     0.89900
C870        C  0.74999499  0.25000545  0.32105555     0.89900
C871        C  0.69604799  0.24999681  0.37500523     0.89900
C872        C  0.80394462  0.24999804  0.37500434     0.90100
O873        O  0.95932987  0.02370860  0.62498753    -0.72200
O874        O  0.54069633  0.02370496  0.62501911    -0.72300
O875        O  0.00003109  0.02370880  0.58431871    -0.72300
O876        O  0.49999187  0.02370602  0.66568856    -0.72400
O877        O  0.00003883  0.47627602  0.66568678    -0.72300
O878        O  0.49999166  0.47627891  0.58431633    -0.72300
O879        O  0.54069823  0.47627578  0.62497566    -0.72300
O880        O  0.95933226  0.47627931  0.62502595    -0.72300
Ni881      Ni  0.50001255  0.02541257  0.62500379     1.25400
Ni882      Ni  0.50001502  0.47457194  0.62500130     1.25400
C883        C  0.94606770  0.49999432  0.62500695     0.89900
C884        C  0.55396426  0.49998990  0.62499466     0.89900
C885        C  0.50001336  0.49999433  0.57105268     0.89900
C886        C  0.50002061  0.49999083  0.67895252     0.90100
O887        O  0.49997977  0.22626928  0.58431406    -0.72200
O888        O  0.00002126  0.22627570  0.66568303    -0.72300
O889        O  0.95931933  0.22627667  0.62502002    -0.72300
O890        O  0.54068631  0.22627157  0.62497715    -0.72400
O891        O  0.54068788  0.27370078  0.62501423    -0.72300
O892        O  0.95932240  0.27370612  0.62497724    -0.72300
O893        O  0.49998401  0.27370571  0.66568107    -0.72300
O894        O  0.00002232  0.27369931  0.58431132    -0.72300
Ni895      Ni  0.50000195  0.22456769  0.62499874     1.25400
Ni896      Ni  0.50000470  0.27540844  0.62499588     1.25400
C897        C  0.49999730  0.24998327  0.57104817     0.89900
C898        C  0.50000117  0.24999134  0.67894669     0.89900
C899        C  0.94605606  0.24999245  0.62499856     0.89900
C900        C  0.55395265  0.24998585  0.62499500     0.90100
O901        O  0.70933640  0.02370095  0.62498294    -0.72200
O902        O  0.79070255  0.02369601  0.62502959    -0.72300
O903        O  0.75004393  0.02370207  0.58432248    -0.72300
O904        O  0.74999663  0.02369677  0.66569110    -0.72400
O905        O  0.75003147  0.47626677  0.66568873    -0.72300
O906        O  0.74999644  0.47627202  0.58431802    -0.72300
O907        O  0.79069801  0.47626663  0.62498151    -0.72300
O908        O  0.70933165  0.47627161  0.62502343    -0.72300
Ni909      Ni  0.75002043  0.02540429  0.62500693     1.25400
Ni910      Ni  0.75001446  0.47456349  0.62500300     1.25400
C911        C  0.69606775  0.49998704  0.62500641     0.89900
C912        C  0.80396430  0.49998067  0.62499959     0.89900
C913        C  0.75001910  0.49998820  0.57105562     0.89900
C914        C  0.75000942  0.49998152  0.67895469     0.90100
O915        O  0.70932614  0.27370395  0.62497867    -0.72200
O916        O  0.79069154  0.27369932  0.62502047    -0.72300
O917        O  0.75003306  0.27370047  0.58431581    -0.72300
O918        O  0.74998625  0.27370141  0.66568487    -0.72400
O919        O  0.75002377  0.22627137  0.66568439    -0.72300
O920        O  0.74999071  0.22627034  0.58431579    -0.72300
O921        O  0.79069028  0.22626988  0.62498031    -0.72300
O922        O  0.70932321  0.22627467  0.62501839    -0.72300
Ni923      Ni  0.75000936  0.27540673  0.62500011     1.25400
Ni924      Ni  0.75000691  0.22456586  0.62499986     1.25400
C925        C  0.69605923  0.24999033  0.62499882     0.89900
C926        C  0.80395581  0.24998436  0.62499823     0.89900
C927        C  0.75001412  0.24998513  0.57105151     0.89900
C928        C  0.75000323  0.24998643  0.67894922     0.90100
C929        C  0.83442158  0.24998494  0.62499294    -0.16300
C930        C  0.86001815  0.24998962  0.62499134     0.07700
C931        C  0.88999393  0.24999437  0.62499421     0.09600
C932        C  0.91559046  0.24999490  0.62499726    -0.17200
C933        C  0.58441994  0.24998614  0.62499409    -0.16300
C934        C  0.61001743  0.24998983  0.62499554     0.07700
C935        C  0.63999468  0.24999312  0.62499867     0.09600
C936        C  0.66559212  0.24999282  0.62499968    -0.17200
C937        C  0.83443085  0.49997997  0.62499026    -0.16300
C938        C  0.86002788  0.49998366  0.62498760     0.07700
C939        C  0.89000438  0.49999020  0.62499386     0.09600
C940        C  0.91560134  0.49999434  0.62500201    -0.17200
C941        C  0.66560142  0.49998861  0.62500739    -0.16300
C942        C  0.64000444  0.49998889  0.62500390     0.07700
C943        C  0.61002789  0.49998858  0.62499636     0.09600
C944        C  0.58443084  0.49998875  0.62499247    -0.14000
C945        C  0.75001158  0.24998821  0.45941771    -0.16300
C946        C  0.75001878  0.24998601  0.48501480     0.07700
C947        C  0.75002102  0.24998460  0.51498979     0.09600
C948        C  0.75001887  0.24998448  0.54058686    -0.17200
C949        C  0.74989374  0.00000205  0.45941930    -0.16300
C950        C  0.74988652  0.00000079  0.48501691     0.07700
C951        C  0.75002201  0.49999629  0.51499254     0.09600
C952        C  0.75002216  0.49999148  0.54059013    -0.17200
C953        C  0.49999713  0.25000049  0.45941308    -0.16300
C954        C  0.49999187  0.24999401  0.48501036     0.07700
C955        C  0.49998658  0.24998543  0.51498570     0.09600
C956        C  0.49998864  0.24998158  0.54058303    -0.17200
C957        C  0.83441126  0.24999718  0.37500587    -0.16300
C958        C  0.86000841  0.24999602  0.37500731     0.07700
C959        C  0.88998521  0.24999715  0.37500818     0.09600
C960        C  0.91558242  0.25000014  0.37500693    -0.17200
C961        C  0.66558173  0.24999556  0.37500422    -0.16300
C962        C  0.63998485  0.24999564  0.37500206     0.07700
C963        C  0.61000864  0.24999901  0.37499885     0.09600
C964        C  0.58441184  0.25000305  0.37499708    -0.17200
C965        C  0.50001671  0.49999509  0.54058684    -0.16300
C966        C  0.50003293  0.99999409  0.51498910     0.07700
C967        C  0.50004630  0.99999240  0.48501300     0.09600
C968        C  0.49999553  0.49999209  0.45941523    -0.17200
C969        C  0.83440786  0.99999905  0.37497205    -0.16300
C970        C  0.86000634  0.99999993  0.37496496     0.07700
C971        C  0.88998512  0.00000145  0.37497417     0.09600
C972        C  0.91558344  0.00000241  0.37498856    -0.17200
C973        C  0.58441300  0.99999064  0.37501219    -0.16300
C974        C  0.61000869  0.99998759  0.37502782     0.07700
C975        C  0.63997388  0.49998589  0.37499923     0.09600
C976        C  0.66557846  0.99998651  0.37503320    -0.17200
C977        C  0.74999935  0.24998727  0.79058529    -0.16300
C978        C  0.74999787  0.24998619  0.76498777     0.07700
C979        C  0.74999756  0.24998618  0.73501207     0.09600
C980        C  0.74999927  0.24998643  0.70941458    -0.17200
C981        C  0.75001015  0.00000609  0.79059142    -0.16300
C982        C  0.75001242  0.50000217  0.76499384     0.07700
C983        C  0.75000509  0.49999126  0.73501796     0.09600
C984        C  0.75000362  0.49998263  0.70942033    -0.17200
C985        C  0.75000556  0.33441008  0.87499876    -0.16300
C986        C  0.75000729  0.36000733  0.87500174     0.07700
C987        C  0.75000732  0.38998409  0.87500453     0.09600
C988        C  0.75000711  0.41558133  0.87500451    -0.17200
C989        C  0.75000607  0.08441084  0.87500644    -0.16300
C990        C  0.75000529  0.11000765  0.87500228     0.07700
C991        C  0.75000535  0.13998373  0.87499932     0.09600
C992        C  0.75000496  0.16558055  0.87499951    -0.17200
C993        C  0.49999945  0.24999197  0.70941214    -0.16300
C994        C  0.50000139  0.24998883  0.73500971     0.07700
C995        C  0.50000477  0.24998483  0.76498551     0.09600
C996        C  0.50000528  0.24998416  0.79058313    -0.17200
C997        C  0.50002224  0.49999133  0.70941834    -0.16300
C998        C  0.50002324  0.49999605  0.73501608     0.07700
C999        C  0.50002384  0.50000186  0.76499213     0.09600
C1000       C  0.50002270  0.50000335  0.79058984    -0.17200
C1001       C  0.49999916  0.33441088  0.87499690    -0.16300
C1002       C  0.49999887  0.36000788  0.87500224     0.07700
C1003       C  0.00000153  0.38998426  0.87500660     0.09600
C1004       C  0.50000510  0.41558128  0.87500661    -0.17200
C1005       C  0.50000709  0.16558144  0.87501133    -0.16300
C1006       C  0.50000833  0.13998438  0.87501409     0.07700
C1007       C  0.50000979  0.11000790  0.87501495     0.09600
C1008       C  0.50000976  0.08441084  0.87501366    -0.17200
C1009       C  0.74999491  0.25000628  0.20942030    -0.16300
C1010       C  0.74999213  0.25000874  0.23501769     0.07700
C1011       C  0.74999125  0.25000999  0.26499314     0.09600
C1012       C  0.74999266  0.25000908  0.29059047    -0.17200
C1013       C  0.75000184  0.24999743  0.95941676    -0.16300
C1014       C  0.75000397  0.24999594  0.98501476     0.07700
C1015       C  0.75000731  0.24999449  0.01499122     0.09600
C1016       C  0.75000857  0.24999461  0.04058923    -0.17200
C1017       C  0.74999272  0.00000237  0.20941859    -0.16300
C1018       C  0.74998769  0.99999890  0.23501611     0.07700
C1019       C  0.75000331  0.49999242  0.26499161     0.09600
C1020       C  0.74997995  0.99998856  0.29058933    -0.17200
C1021       C  0.74998997  0.99999503  0.04058987    -0.16300
C1022       C  0.74999144  0.49999059  0.01499262     0.07700
C1023       C  0.75000632  0.99998688  0.98501739     0.09600
C1024       C  0.75000694  0.99998712  0.95942016    -0.17200
C1025       C  0.74999235  0.33441526  0.12500797    -0.16300
C1026       C  0.74999570  0.36001243  0.12500911     0.07700
C1027       C  0.75000120  0.38998909  0.12500847     0.09600
C1028       C  0.75000213  0.41558625  0.12500673    -0.17200
C1029       C  0.75001476  0.16558571  0.12500812    -0.16300
C1030       C  0.75001311  0.13998880  0.12500732     0.07700
C1031       C  0.75000403  0.11001264  0.12500560     0.09600
C1032       C  0.74999467  0.08441575  0.12500421    -0.17200
C1033       C  0.49999583  0.25000306  0.20941598    -0.16300
C1034       C  0.49999589  0.25000552  0.23501319     0.07700
C1035       C  0.49999811  0.25000704  0.26498842     0.09600
C1036       C  0.49999944  0.25000725  0.29058564    -0.17200
C1037       C  0.50001022  0.25000811  0.95941441    -0.16300
C1038       C  0.50001006  0.25000674  0.98501224     0.07700
C1039       C  0.50000543  0.25000193  0.01498844     0.09600
C1040       C  0.50000080  0.24999794  0.04058628    -0.17200
C1041       C  0.50000229  0.50000332  0.29058468    -0.16300
C1042       C  0.99996183  0.00000185  0.26498721     0.07700
C1043       C  0.49996646  0.99999956  0.23501153     0.09600
C1044       C  0.49999788  0.49999842  0.20941395    -0.17200
C1045       C  0.49999963  0.99999187  0.95941802    -0.16300
C1046       C  0.49999607  0.49999300  0.98501498     0.07700
C1047       C  0.50000001  0.49999525  0.01498975     0.09600
C1048       C  0.49999054  0.99999714  0.04058670    -0.17200
C1049       C  0.99999203  0.41558304  0.12500268    -0.16300
C1050       C  0.99999316  0.38998591  0.12500616     0.07700
C1051       C  0.99999681  0.36000932  0.12500853     0.09600
C1052       C  0.99999934  0.33441219  0.12500747    -0.17200
C1053       C  0.00000241  0.08441253  0.12500325    -0.16300
C1054       C  0.00000375  0.11000946  0.12500539     0.07700
C1055       C  0.50000179  0.13998573  0.12500706     0.09600
C1056       C  0.99999945  0.16558265  0.12500688    -0.17200
O1057       O  0.97628373  0.49998119  0.16568380    -0.72200
O1058       O  0.97627613  0.00002073  0.08431568    -0.72300
O1059       O  0.97627296  0.95931689  0.12497923    -0.72300
O1060       O  0.97629060  0.54068394  0.12501939    -0.72400
O1061       O  0.52371953  0.54067867  0.12498098    -0.72300
O1062       O  0.52370181  0.95931261  0.12501893    -0.72300
O1063       O  0.52371767  0.49997558  0.08431561    -0.72300
O1064       O  0.52370139  0.00001520  0.16568584    -0.72300
Ni1065     Ni  0.97457033  0.00000098  0.12499921     1.25400
Ni1066     Ni  0.52541063  0.99999523  0.12500002     1.25400
C1067       C  0.49998482  0.99999808  0.17894871     0.89900
C1068       C  0.50000328  0.49999799  0.07105117     0.89900
C1069       C  0.99998646  0.94604954  0.12499979     0.89900
C1070       C  0.00000641  0.55394636  0.12500084     0.90100
O1071       O  0.97628409  0.75001313  0.08431712    -0.72200
O1072       O  0.97628262  0.74997680  0.16568661    -0.72300
O1073       O  0.97627924  0.79067803  0.12502232    -0.72300
O1074       O  0.97628988  0.70931125  0.12498405    -0.72400
O1075       O  0.52371867  0.70931653  0.12502321    -0.72300
O1076       O  0.52370801  0.79068286  0.12498239    -0.72300
O1077       O  0.52371219  0.75002095  0.16568667    -0.72300
O1078       O  0.52371355  0.74997821  0.08431704    -0.72300
Ni1079     Ni  0.97457840  0.74999445  0.12500236     1.25400
Ni1080     Ni  0.52541863  0.74999976  0.12500208     1.25400
C1081       C  0.49999921  0.74999580  0.07105222     0.89900
C1082       C  0.49999699  0.75000008  0.17895105     0.89900
C1083       C  0.99999225  0.80394565  0.12500384     0.89900
C1084       C  0.00000595  0.69604882  0.12500480     0.90100
O1085       O  0.72628540  0.49998401  0.16569062    -0.72200
O1086       O  0.72627220  0.00002099  0.08431997    -0.72300
O1087       O  0.72627235  0.95931883  0.12498631    -0.72300
O1088       O  0.72628865  0.54068689  0.12502598    -0.72400
O1089       O  0.77371752  0.54068221  0.12498045    -0.72300
O1090       O  0.77370117  0.95931725  0.12502242    -0.72300
O1091       O  0.77370783  0.49997924  0.08431599    -0.72300
O1092       O  0.77370605  0.00002152  0.16568679    -0.72300
Ni1093     Ni  0.72457868  0.50000263  0.12500675     1.25400
Ni1094     Ni  0.77541897  0.50000023  0.12500068     1.25400
C1095       C  0.75000076  0.50000304  0.17895301     0.89900
C1096       C  0.74999139  0.49999905  0.07105480     0.89900
C1097       C  0.74998649  0.94605279  0.12500502     0.89900
C1098       C  0.75000481  0.55394957  0.12500334     0.90100
O1099       O  0.77372574  0.70932132  0.12502819    -0.72200
O1100       O  0.77370837  0.79068751  0.12498647    -0.72300
O1101       O  0.77371390  0.75002639  0.16569189    -0.72300
O1102       O  0.77372049  0.74998232  0.08432161    -0.72400
O1103       O  0.72629113  0.75001277  0.08431928    -0.72300
O1104       O  0.72628443  0.74997759  0.16568906    -0.72300
O1105       O  0.72627958  0.79067904  0.12502361    -0.72300
O1106       O  0.72629690  0.70931214  0.12498619    -0.72300
Ni1107     Ni  0.77542261  0.75000475  0.12500707     1.25400
Ni1108     Ni  0.72458247  0.74999499  0.12500436     1.25400
C1109       C  0.75001399  0.69605171  0.12500764     0.89900
C1110       C  0.74999164  0.80394851  0.12500577     0.89900
C1111       C  0.74999797  0.75000310  0.17895506     0.89900
C1112       C  0.75000678  0.74999648  0.07105548     0.90100
O1113       O  0.52371788  0.00001225  0.91568986    -0.72200
O1114       O  0.52373092  0.49997823  0.83432348    -0.72300
O1115       O  0.52372517  0.54067848  0.87499234    -0.72300
O1116       O  0.52371946  0.95931179  0.87502264    -0.72400
O1117       O  0.97629058  0.95931364  0.87498353    -0.72300
O1118       O  0.97629637  0.54068002  0.87502538    -0.72300
O1119       O  0.97629265  0.00001969  0.83432085    -0.72300
O1120       O  0.97628778  0.49997468  0.91568622    -0.72300
Ni1121     Ni  0.52542963  0.49999496  0.87500871     1.25400
Ni1122     Ni  0.97458583  0.99999708  0.87500527     1.25400
C1123       C  0.50000049  0.49999275  0.92895359     0.89900
C1124       C  0.50000735  0.00000061  0.82105560     0.89900
C1125       C  0.50001102  0.55394438  0.87501044     0.89900
C1126       C  0.50000461  0.94604759  0.87500401     0.90100
O1127       O  0.52371964  0.74997237  0.83431256    -0.72200
O1128       O  0.52372173  0.75002502  0.91568176    -0.72300
O1129       O  0.52372177  0.70931467  0.87502253    -0.72300
O1130       O  0.52371512  0.79068168  0.87497209    -0.72400
O1131       O  0.97628629  0.79067702  0.87501469    -0.72300
O1132       O  0.97629295  0.70931100  0.87498624    -0.72300
O1133       O  0.97629237  0.74998049  0.91568555    -0.72300
O1134       O  0.97629024  0.75000671  0.83431450    -0.72300
Ni1135     Ni  0.52542496  0.74999855  0.87499697     1.25400
Ni1136     Ni  0.97458478  0.74999369  0.87500013     1.25400
C1137       C  0.50000494  0.74998745  0.82104879     0.89900
C1138       C  0.50000792  0.75000482  0.92894850     0.89900
C1139       C  0.50000826  0.69604768  0.87500653     0.89900
C1140       C  0.49999930  0.80394447  0.87499353     0.90100
O1141       O  0.77371765  0.95931201  0.87502294    -0.72200
O1142       O  0.77372612  0.54067905  0.87499129    -0.72300
O1143       O  0.77372051  0.00001163  0.91569028    -0.72300
O1144       O  0.77372874  0.49998029  0.83432269    -0.72400
O1145       O  0.72629273  0.00002184  0.83432127    -0.72300
O1146       O  0.72629382  0.49997399  0.91568996    -0.72300
O1147       O  0.72629720  0.54068058  0.87502892    -0.72300
O1148       O  0.72628885  0.95931456  0.87498315    -0.72300
Ni1149     Ni  0.77542580  0.99999574  0.87500640     1.25400
Ni1150     Ni  0.72459050  0.49999778  0.87500538     1.25400
C1151       C  0.75000248  0.94604799  0.87500339     0.89900
C1152       C  0.75001194  0.55394480  0.87500965     0.89900
C1153       C  0.75000593  0.99999090  0.92895523     0.89900
C1154       C  0.75001495  0.50000331  0.82105701     0.90100
O1155       O  0.72628762  0.70931187  0.87498294    -0.72200
O1156       O  0.72629061  0.79067932  0.87501845    -0.72300
O1157       O  0.72628641  0.75001211  0.83431657    -0.72300
O1158       O  0.72628705  0.74997866  0.91568629    -0.72400
O1159       O  0.77371641  0.75001597  0.91568485    -0.72300
O1160       O  0.77371588  0.74997034  0.83431420    -0.72300
O1161       O  0.77371940  0.79067678  0.87497717    -0.72300
O1162       O  0.77371651  0.70931116  0.87502074    -0.72300
Ni1163     Ni  0.72458227  0.74999565  0.87500119     1.25400
Ni1164     Ni  0.77542250  0.74999354  0.87499926     1.25400
C1165       C  0.75000220  0.69604653  0.87500125     0.89900
C1166       C  0.75000576  0.80394332  0.87499749     0.89900
C1167       C  0.75000070  0.74998980  0.82105074     0.89900
C1168       C  0.75000169  0.74999769  0.92895055     0.90100
O1169       O  0.54068252  0.97627989  0.37497320    -0.72200
O1170       O  0.95931666  0.97628588  0.37502176    -0.72300
O1171       O  0.49997371  0.97628581  0.33431282    -0.72300
O1172       O  0.00003047  0.97627982  0.41568256    -0.72400
O1173       O  0.49996791  0.52370979  0.41568673    -0.72300
O1174       O  0.00001270  0.52371598  0.33431683    -0.72300
O1175       O  0.95930549  0.52371507  0.37498221    -0.72300
O1176       O  0.54067213  0.52370950  0.37502155    -0.72300
Ni1177     Ni  0.50000056  0.97457740  0.37499736     1.25400
Ni1178     Ni  0.99998932  0.52541822  0.37500195     1.25400
C1179       C  0.55393531  0.49999367  0.37499758     0.89900
C1180       C  0.94603872  0.50000120  0.37500220     0.89900
C1181       C  0.49998864  0.00000166  0.32105017     0.89900
C1182       C  0.00002157  0.99999390  0.42894943     0.90100
O1183       O  0.54068076  0.77371938  0.37501857    -0.72200
O1184       O  0.95931358  0.77371762  0.37498287    -0.72300
O1185       O  0.49997854  0.77371847  0.41568514    -0.72300
O1186       O  0.00001725  0.77372100  0.33431614    -0.72400
O1187       O  0.49997853  0.72629091  0.33431381    -0.72300
O1188       O  0.00001945  0.72628838  0.41568233    -0.72300
O1189       O  0.95931554  0.72628832  0.37502057    -0.72300
O1190       O  0.54068086  0.72628997  0.37497656    -0.72300
Ni1191     Ni  0.49999741  0.77542491  0.37500065     1.25400
Ni1192     Ni  0.99999852  0.72458403  0.37499811     1.25400
C1193       C  0.55394580  0.75000445  0.37499719     0.89900
C1194       C  0.94604922  0.75000233  0.37500339     0.89900
C1195       C  0.49999916  0.75000281  0.42894815     0.89900
C1196       C  0.49999856  0.75000639  0.32105057     0.90100
O1197       O  0.79066619  0.52371128  0.37501845    -0.72200
O1198       O  0.70929965  0.52370509  0.37498512    -0.72300
O1199       O  0.74996640  0.52371318  0.41568688    -0.72300
O1200       O  0.75000217  0.52370543  0.33431770    -0.72400
O1201       O  0.74996999  0.97627544  0.33432075    -0.72300
O1202       O  0.74999464  0.97628329  0.41569085    -0.72300
O1203       O  0.70930833  0.97627553  0.37502853    -0.72300
O1204       O  0.79067415  0.97628214  0.37498289    -0.72300
Ni1205     Ni  0.74998276  0.52541424  0.37500194     1.25400
Ni1206     Ni  0.74998916  0.97457357  0.37500596     1.25400
C1207       C  0.80393326  0.49999747  0.37499947     0.89900
C1208       C  0.69603665  0.49998928  0.37500719     0.89900
C1209       C  0.74999262  0.49999951  0.42895345     0.89900
C1210       C  0.74998767  0.49998953  0.32105449     0.90100
O1211       O  0.74997760  0.77370844  0.41569198    -0.72200
O1212       O  0.75001522  0.77371873  0.33432341    -0.72300
O1213       O  0.70931245  0.77371182  0.37498888    -0.72300
O1214       O  0.79067931  0.77371283  0.37502697    -0.72400
O1215       O  0.79067947  0.72628347  0.37498042    -0.72300
O1216       O  0.70931377  0.72628242  0.37502202    -0.72300
O1217       O  0.74997618  0.72628862  0.33431661    -0.72300
O1218       O  0.75001824  0.72627830  0.41568541    -0.72300
Ni1219     Ni  0.74999585  0.77541868  0.37500804     1.25400
Ni1220     Ni  0.74999670  0.72457771  0.37500084     1.25400
C1221       C  0.75000143  0.74999179  0.42895300     0.89900
C1222       C  0.74999494  0.75000538  0.32105555     0.89900
C1223       C  0.69604799  0.74999671  0.37500523     0.89900
C1224       C  0.80394462  0.74999799  0.37500430     0.90100
O1225       O  0.95933340  0.52370867  0.62498861    -0.72200
O1226       O  0.54069984  0.52370510  0.62501805    -0.72300
O1227       O  0.00003330  0.52370889  0.58431865    -0.72300
O1228       O  0.50000053  0.52370599  0.66568860    -0.72400
O1229       O  0.00003027  0.97627609  0.66568672    -0.72300
O1230       O  0.49998951  0.97627886  0.58431624    -0.72300
O1231       O  0.54069473  0.97627580  0.62497653    -0.72300
O1232       O  0.95932878  0.97627914  0.62502468    -0.72300
Ni1233     Ni  0.50001664  0.52541272  0.62500380     1.25400
Ni1234     Ni  0.50001089  0.97457192  0.62500116     1.25400
C1235       C  0.94606463  0.99999419  0.62500942     0.89900
C1236       C  0.55396119  0.99998985  0.62499192     0.89900
C1237       C  0.50001128  0.99999429  0.57105267     0.89900
C1238       C  0.50000748  0.99999088  0.67895247     0.90100
O1239       O  0.49997980  0.72626916  0.58431408    -0.72200
O1240       O  0.00002119  0.72627579  0.66568303    -0.72300
O1241       O  0.95931930  0.72627658  0.62502001    -0.72300
O1242       O  0.54068632  0.72627159  0.62497716    -0.72400
O1243       O  0.54068786  0.77370081  0.62501410    -0.72300
O1244       O  0.95932240  0.77370605  0.62497726    -0.72300
O1245       O  0.49998399  0.77370582  0.66568106    -0.72300
O1246       O  0.00002233  0.77369922  0.58431133    -0.72300
Ni1247     Ni  0.50000198  0.72456763  0.62499875     1.25400
Ni1248     Ni  0.50000464  0.77540846  0.62499586     1.25400
C1249       C  0.49999732  0.74998316  0.57104820     0.89900
C1250       C  0.50000120  0.74999145  0.67894669     0.89900
C1251       C  0.94605605  0.74999237  0.62499857     0.89900
C1252       C  0.55395265  0.74998588  0.62499496     0.90100
O1253       O  0.70933405  0.52370099  0.62498739    -0.72200
O1254       O  0.79070012  0.52369596  0.62502536    -0.72300
O1255       O  0.75003886  0.52370205  0.58432251    -0.72300
O1256       O  0.74999401  0.52369677  0.66569120    -0.72400
O1257       O  0.75003399  0.97626679  0.66568856    -0.72300
O1258       O  0.75000157  0.97627204  0.58431791    -0.72300
O1259       O  0.79070044  0.97626653  0.62498557    -0.72300
O1260       O  0.70933406  0.97627176  0.62501876    -0.72300
Ni1261     Ni  0.75001705  0.52540430  0.62500700     1.25400
Ni1262     Ni  0.75001784  0.97456352  0.62500281     1.25400
C1263       C  0.69606953  0.99998707  0.62499706     0.89900
C1264       C  0.80396615  0.99998064  0.62500830     0.89900
C1265       C  0.75001800  0.99998823  0.57105557     0.89900
C1266       C  0.75001440  0.99998153  0.67895457     0.90100
O1267       O  0.70932614  0.77370394  0.62497868    -0.72200
O1268       O  0.79069153  0.77369921  0.62502049    -0.72300
O1269       O  0.75003297  0.77370042  0.58431582    -0.72300
O1270       O  0.74998625  0.77370139  0.66568489    -0.72400
O1271       O  0.75002370  0.72627132  0.66568438    -0.72300
O1272       O  0.74999070  0.72627027  0.58431578    -0.72300
O1273       O  0.79069025  0.72626974  0.62498035    -0.72300
O1274       O  0.70932320  0.72627464  0.62501839    -0.72300
Ni1275     Ni  0.75000936  0.77540672  0.62500011     1.25400
Ni1276     Ni  0.75000685  0.72456576  0.62499986     1.25400
C1277       C  0.69605924  0.74999031  0.62499883     0.89900
C1278       C  0.80395578  0.74998424  0.62499831     0.89900
C1279       C  0.75001409  0.74998508  0.57105152     0.89900
C1280       C  0.75000318  0.74998638  0.67894921     0.90100
C1281       C  0.83442156  0.74998491  0.62499294    -0.16300
C1282       C  0.86001813  0.74998964  0.62499120     0.07700
C1283       C  0.88999392  0.74999426  0.62499416     0.09600
C1284       C  0.91559044  0.74999477  0.62499727    -0.17200
C1285       C  0.58441996  0.74998612  0.62499409    -0.16300
C1286       C  0.61001745  0.74998981  0.62499555     0.07700
C1287       C  0.63999470  0.74999300  0.62499867     0.09600
C1288       C  0.66559214  0.74999272  0.62499968    -0.17200
C1289       C  0.83443140  0.99997996  0.62501174    -0.16300
C1290       C  0.86002768  0.99998372  0.62501696     0.07700
C1291       C  0.89000304  0.99999022  0.62502078     0.09600
C1292       C  0.91559933  0.99999422  0.62501772    -0.17200
C1293       C  0.66560188  0.99998852  0.62498502    -0.16300
C1294       C  0.64000415  0.99998877  0.62497374     0.07700
C1295       C  0.61002649  0.99998860  0.62496898     0.09600
C1296       C  0.58442878  0.99998878  0.62497648    -0.14000
C1297       C  0.75001161  0.74998827  0.45941771    -0.16300
C1298       C  0.75001880  0.74998607  0.48501480     0.07700
C1299       C  0.75002105  0.74998466  0.51498979     0.09600
C1300       C  0.75001890  0.74998447  0.54058686    -0.17200
C1301       C  0.75000524  0.50000221  0.45941907    -0.16300
C1302       C  0.75001573  0.50000105  0.48501669     0.07700
C1303       C  0.74993552  0.99999615  0.51499266     0.09600
C1304       C  0.74998737  0.99999152  0.54059016    -0.17200
C1305       C  0.49999711  0.75000052  0.45941314    -0.16300
C1306       C  0.49999172  0.74999407  0.48501043     0.07700
C1307       C  0.49998643  0.74998545  0.51498577     0.09600
C1308       C  0.49998863  0.74998149  0.54058309    -0.17200
C1309       C  0.83441124  0.74999714  0.37500587    -0.16300
C1310       C  0.86000840  0.74999594  0.37500731     0.07700
C1311       C  0.88998520  0.74999718  0.37500818     0.09600
C1312       C  0.91558242  0.75000019  0.37500697    -0.17200
C1313       C  0.66558172  0.74999553  0.37500422    -0.16300
C1314       C  0.63998486  0.74999553  0.37500210     0.07700
C1315       C  0.61000864  0.74999885  0.37499898     0.09600
C1316       C  0.58441185  0.75000297  0.37499718    -0.17200
C1317       C  0.50001887  0.99999509  0.54058685    -0.16300
C1318       C  0.50001582  0.49999421  0.51498906     0.07700
C1319       C  0.50000640  0.49999252  0.48501297     0.09600
C1320       C  0.50004211  0.99999209  0.45941524    -0.17200
C1321       C  0.83440008  0.49999918  0.37499994    -0.16300
C1322       C  0.85999735  0.50000007  0.37500407     0.07700
C1323       C  0.88997436  0.50000153  0.37500861     0.09600
C1324       C  0.91557169  0.50000247  0.37500765    -0.17200
C1325       C  0.58440119  0.49999070  0.37499311    -0.16300
C1326       C  0.60999787  0.49998770  0.37499316     0.07700
C1327       C  0.63998294  0.99998572  0.37503869     0.09600
C1328       C  0.66557060  0.49998666  0.37500500    -0.17200
C1329       C  0.74999937  0.74998711  0.79058528    -0.16300
C1330       C  0.74999790  0.74998599  0.76498776     0.07700
C1331       C  0.74999759  0.74998590  0.73501207     0.09600
C1332       C  0.74999926  0.74998629  0.70941458    -0.17200
C1333       C  0.75001651  0.50000615  0.79059145    -0.16300
C1334       C  0.75001203  0.00000209  0.76499380     0.07700
C1335       C  0.75001271  0.99999116  0.73501790     0.09600
C1336       C  0.75001300  0.99998263  0.70942025    -0.17200
C1337       C  0.75000720  0.83441001  0.87499861    -0.16300
C1338       C  0.75000524  0.86000725  0.87500173     0.07700
C1339       C  0.75000153  0.88998402  0.87500471     0.09600
C1340       C  0.75000070  0.91558127  0.87500474    -0.17200
C1341       C  0.75001231  0.58441080  0.87500640    -0.16300
C1342       C  0.75001095  0.61000763  0.87500210     0.07700
C1343       C  0.75000748  0.63998370  0.87499914     0.09600
C1344       C  0.75000353  0.66558053  0.87499946    -0.17200
C1345       C  0.49999948  0.74999205  0.70941215    -0.16300
C1346       C  0.50000142  0.74998889  0.73500972     0.07700
C1347       C  0.50000480  0.74998490  0.76498554     0.09600
C1348       C  0.50000532  0.74998418  0.79058316    -0.17200
C1349       C  0.49999927  0.99999139  0.70941831    -0.16300
C1350       C  0.49999643  0.99999609  0.73501606     0.07700
C1351       C  0.50000044  0.00000182  0.76499213     0.09600
C1352       C  0.50000581  0.00000328  0.79058984    -0.17200
C1353       C  0.49999644  0.83441079  0.87499672    -0.16300
C1354       C  0.49999746  0.86000780  0.87500202     0.07700
C1355       C  0.00000103  0.88998420  0.87500638     0.09600
C1356       C  0.50000348  0.91558123  0.87500640    -0.17200
C1357       C  0.50000983  0.66558130  0.87501133    -0.16300
C1358       C  0.50000962  0.63998424  0.87501409     0.07700
C1359       C  0.50001016  0.61000779  0.87501495     0.09600
C1360       C  0.50001124  0.58441074  0.87501366    -0.17200
C1361       C  0.74999492  0.75000612  0.20942030    -0.16300
C1362       C  0.74999212  0.75000862  0.23501769     0.07700
C1363       C  0.74999114  0.75001002  0.26499314     0.09600
C1364       C  0.74999259  0.75000910  0.29059047    -0.17200
C1365       C  0.75000183  0.74999749  0.95941680    -0.16300
C1366       C  0.75000387  0.74999600  0.98501479     0.07700
C1367       C  0.75000729  0.74999456  0.01499129     0.09600
C1368       C  0.75000860  0.74999463  0.04058927    -0.17200
C1369       C  0.75000206  0.50000224  0.20941841    -0.16300
C1370       C  0.75000357  0.49999864  0.23501592     0.07700
C1371       C  0.74998059  0.99999266  0.26499183     0.09600
C1372       C  0.74999754  0.49998847  0.29058910    -0.17200
C1373       C  0.74998810  0.49999517  0.04058985    -0.16300
C1374       C  0.74999894  0.99999050  0.01499263     0.07700
C1375       C  0.74999992  0.49998668  0.98501740     0.09600
C1376       C  0.75000559  0.49998687  0.95942018    -0.17200
C1377       C  0.74998739  0.83441510  0.12500788    -0.16300
C1378       C  0.74998800  0.86001228  0.12500923     0.07700
C1379       C  0.74998808  0.88998896  0.12500875     0.09600
C1380       C  0.74998656  0.91558616  0.12500708    -0.17200
C1381       C  0.75001975  0.66558561  0.12500799    -0.16300
C1382       C  0.75002093  0.63998874  0.12500727     0.07700
C1383       C  0.75001711  0.61001256  0.12500561     0.09600
C1384       C  0.75001026  0.58441568  0.12500417    -0.17200
C1385       C  0.49999583  0.75000330  0.20941598    -0.16300
C1386       C  0.49999591  0.75000580  0.23501319     0.07700
C1387       C  0.49999809  0.75000727  0.26498842     0.09600
C1388       C  0.49999933  0.75000730  0.29058564    -0.17200
C1389       C  0.50001024  0.75000782  0.95941442    -0.16300
C1390       C  0.50001010  0.75000658  0.98501224     0.07700
C1391       C  0.50000542  0.75000191  0.01498844     0.09600
C1392       C  0.50000073  0.74999783  0.04058627    -0.17200
C1393       C  0.49997110  0.00000310  0.29058473    -0.16300
C1394       C  0.00000449  0.50000210  0.26498714     0.07700
C1395       C  0.50000130  0.49999974  0.23501144     0.09600
C1396       C  0.49997813  0.99999831  0.20941405    -0.17200
C1397       C  0.49999600  0.49999200  0.95941804    -0.16300
C1398       C  0.49999533  0.99999287  0.98501497     0.07700
C1399       C  0.49999134  0.99999527  0.01498975     0.09600
C1400       C  0.50000341  0.49999706  0.04058669    -0.17200
C1401       C  0.99998505  0.91558302  0.12500286    -0.16300
C1402       C  0.99998608  0.88998589  0.12500635     0.07700
C1403       C  0.99998753  0.86000929  0.12500857     0.09600
C1404       C  0.99998918  0.83441216  0.12500742    -0.17200
C1405       C  0.00000935  0.58441253  0.12500302    -0.16300
C1406       C  0.00001067  0.61000944  0.12500521     0.07700
C1407       C  0.50001094  0.63998569  0.12500703     0.09600
C1408       C  0.00000956  0.66558262  0.12500693    -0.17200
loop_ 
_geom_bond_atom_site_label_1 
_geom_bond_atom_site_label_2 
_geom_bond_distance 
_geom_bond_site_symmetry_2 
_ccdc_geom_bond_type 
O1         Ni361   1.917   1_565  S
O1         C1067   1.280       .  A
O2           Ni9   1.917       .  S
O2         C1068   1.280       .  A
O3           Ni9   1.918       .  S
O3           C13   1.280       .  A
O4         Ni361   1.918       .  S
O4           C14   1.280       .  A
O5         Ni362   1.918   1_545  S
O5          C718   1.280   1_455  A
O6          Ni10   1.918       .  S
O6          C717   1.280   1_455  A
O7         Ni362   1.917       .  S
O7           C12   1.280   1_455  A
O8          Ni10   1.917       .  S
O8           C11   1.280   1_455  A
Ni9         O353   1.917       .  S
Ni9         O356   1.918       .  S
Ni9        Ni714   2.394       .  S
Ni10        O357   1.918       .  S
Ni10        O359   1.917       .  S
Ni10       Ni713   2.394   1_455  S
C11        O1057   1.280       .  A
C11         C340   1.435       .  S
C12        O1058   1.280   1_565  A
C12         C344   1.435       .  S
C13         O710   1.280       .  A
C13         C345   1.435       .  S
C14         O709   1.280       .  A
C14         C349   1.435       .  S
O15         Ni23   1.918       .  S
O15         C729   1.280       .  A
O16         Ni23   1.917       .  S
O16         C730   1.280       .  A
O17         Ni23   1.918       .  S
O17          C27   1.280       .  A
O18         Ni23   1.918       .  S
O18          C28   1.280       .  A
O19         Ni24   1.918       .  S
O19         C732   1.280   1_455  A
O20         Ni24   1.918       .  S
O20         C731   1.280   1_455  A
O21         Ni24   1.917       .  S
O21          C26   1.280   1_455  A
O22         Ni24   1.917       .  S
O22          C25   1.280   1_455  A
Ni23       Ni728   2.394       .  S
Ni24       Ni727   2.394   1_455  S
C25         O719   1.280       .  A
C25         C336   1.435   1_655  S
C26         O720   1.280       .  A
C26         C329   1.435       .  S
C27         O724   1.280       .  A
C27         C348   1.435       .  S
C28         O723   1.280       .  A
C28         C352   1.435       .  S
O29         Ni37   1.917   1_565  S
O29          C39   1.280   1_565  A
O30        Ni389   1.917       .  S
O30         C392   1.280       .  A
O31        Ni389   1.918       .  S
O31          C41   1.280       .  A
O32         Ni37   1.918       .  S
O32          C42   1.280       .  A
O33         Ni38   1.918       .  S
O33          C42   1.280       .  A
O34        Ni390   1.918       .  S
O34          C41   1.280       .  A
O35         Ni38   1.917   1_565  S
O35          C40   1.280       .  A
O36        Ni390   1.918       .  S
O36         C391   1.280       .  A
Ni37        O382   1.918       .  S
Ni37        O383   1.918   1_545  S
Ni37        Ni38   2.394       .  S
Ni38        O386   1.918   1_545  S
Ni38        O388   1.917       .  S
C39         O388   1.280       .  A
C39         C313   1.435       .  S
C40         O382   1.280   1_565  A
C40         C317   1.435       .  S
C41         C324   1.435       .  S
C42         C328   1.435       .  S
O43         Ni51   1.918       .  S
O43          C53   1.280       .  A
O44         Ni51   1.918       .  S
O44          C54   1.280       .  A
O45         Ni51   1.917       .  S
O45          C55   1.280       .  A
O46         Ni51   1.918       .  S
O46          C56   1.280       .  A
O47         Ni52   1.918       .  S
O47          C56   1.280       .  A
O48         Ni52   1.917       .  S
O48          C55   1.280       .  A
O49         Ni52   1.918       .  S
O49          C54   1.280       .  A
O50         Ni52   1.918       .  S
O50          C53   1.280       .  A
Ni51        Ni52   2.394       .  S
C53         C325   1.435       .  S
C54         C321   1.435       .  S
C55         C305   1.435       .  S
C56         C312   1.435       .  S
O57        Ni417   1.917       .  S
O57         C419   1.280       .  A
O58         Ni65   1.918       .  S
O58         C420   1.280   1_565  A
O59         Ni65   1.918   1_545  S
O59          C69   1.280       .  A
O60        Ni417   1.918       .  S
O60          C70   1.280       .  A
O61         Ni66   1.918       .  S
O61         C774   1.280       .  A
O62        Ni418   1.918   1_545  S
O62         C773   1.280       .  A
O63         Ni66   1.917       .  S
O63         C772   1.280       .  A
O64        Ni418   1.917       .  S
O64         C771   1.280       .  A
Ni65        O409   1.917   1_565  S
Ni65        O412   1.918       .  S
Ni65      Ni1122   2.394   1_455  S
Ni66        O414   1.918       .  S
Ni66        O416   1.917       .  S
Ni66      Ni1121   2.394       .  S
C67         O409   1.280   1_565  A
C67         O768   1.280   1_455  A
C67         C341   1.435   1_455  S
C68         O410   1.280       .  A
C68         O767   1.280   1_455  A
C68         C296   1.435       .  S
C69         O766   1.280   1_455  A
C69         C304   1.435       .  S
C70         O765   1.280   1_455  A
C70         C300   1.435       .  S
O71         Ni79   1.917       .  S
O71          C81   1.280       .  A
O72         Ni79   1.917       .  S
O72          C82   1.280       .  A
O73         Ni79   1.918       .  S
O73          C83   1.280       .  A
O74         Ni79   1.918       .  S
O74          C84   1.280       .  A
O75         Ni80   1.918       .  S
O75         C788   1.280       .  A
O76         Ni80   1.918       .  S
O76         C787   1.280       .  A
O77         Ni80   1.918       .  S
O77         C786   1.280       .  A
O78         Ni80   1.918       .  S
O78         C785   1.280       .  A
Ni79       Ni784   2.394   1_455  S
Ni80       Ni783   2.394       .  S
C81         O782   1.280   1_455  A
C81         C292   1.435       .  S
C82         O781   1.280   1_455  A
C82         C333   1.435       .  S
C83         O780   1.280   1_455  A
C83         C301   1.435       .  S
C84         O779   1.280   1_455  A
C84         C297   1.435   1_455  S
O85         Ni93   1.918       .  S
O85          C95   1.280       .  A
O86        Ni445   1.918   1_545  S
O86          C96   1.280       .  A
O87         Ni93   1.917       .  S
O87          C97   1.280       .  A
O88        Ni445   1.917       .  S
O88          C98   1.280   1_565  A
O89        Ni446   1.917       .  S
O89         C450   1.280       .  A
O90         Ni94   1.917       .  S
O90         C449   1.280       .  A
O91         Ni94   1.918   1_545  S
O91          C96   1.280       .  A
O92        Ni446   1.918       .  S
O92          C95   1.280       .  A
Ni93        O438   1.918       .  S
Ni93        O440   1.917       .  S
Ni93       Ni446   2.394       .  S
Ni94        O441   1.918   1_565  S
Ni94        O444   1.918       .  S
Ni94       Ni445   2.394       .  S
C95         C284   1.435       .  S
C96         C285   1.435       .  S
C97         O442   1.280       .  A
C97         C672   1.435       .  S
C98         O441   1.280       .  A
C98         C277   1.435       .  S
O99        Ni107   1.918       .  S
O99         C109   1.280       .  A
O100       Ni107   1.918       .  S
O100        C110   1.280       .  A
O101       Ni107   1.917       .  S
O101        C111   1.280       .  A
O102       Ni107   1.917       .  S
O102        C112   1.280       .  A
O103       Ni108   1.918       .  S
O103        C112   1.280       .  A
O104       Ni108   1.918       .  S
O104        C111   1.280       .  A
O105       Ni108   1.918       .  S
O105        C110   1.280       .  A
O106       Ni108   1.918       .  S
O106        C109   1.280       .  A
Ni107      Ni108   2.394       .  S
C109        C288   1.435       .  S
C110        C281   1.435       .  S
C111        C273   1.435       .  S
C112        C309   1.435       .  S
O113       Ni121   1.918   1_455  S
O113        C475   1.280       .  A
O114       Ni825   1.918       .  S
O114        C476   1.280       .  A
O115       Ni121   1.917       .  S
O115        C125   1.280       .  A
O116       Ni825   1.917       .  S
O116        C126   1.280       .  A
O117       Ni826   1.917   1_655  S
O117       C1182   1.280   1_645  A
O118       Ni122   1.917       .  S
O118       C1181   1.280       .  A
O119       Ni122   1.918       .  S
O119        C124   1.280       .  A
O120       Ni826   1.918       .  S
O120        C123   1.280   1_545  A
Ni121       O818   1.918       .  S
Ni121       O820   1.917   1_655  S
Ni121     Ni1178   2.394       .  S
Ni122       O821   1.917       .  S
Ni122       O824   1.918       .  S
Ni122     Ni1177   2.394   1_545  S
C123        O465   1.280       .  A
C123        C269   1.435       .  S
C124        O466   1.280   1_545  A
C124        C268   1.435       .  S
C125       O1174   1.280   1_655  A
C125        C337   1.435   1_655  S
C126       O1173   1.280       .  A
C126        C968   1.435       .  S
O127       Ni135   1.918   1_455  S
O127        C137   1.280       .  A
O128       Ni839   1.918       .  S
O128        C138   1.280       .  A
O129       Ni135   1.917       .  S
O129        C139   1.280       .  A
O130       Ni839   1.917       .  S
O130        C844   1.280       .  A
O131       Ni840   1.917       .  S
O131        C140   1.280       .  A
O132       Ni136   1.917       .  S
O132        C843   1.280       .  A
O133       Ni136   1.918       .  S
O133        C138   1.280       .  A
O134       Ni840   1.918   1_455  S
O134        C137   1.280       .  A
Ni135       O832   1.918       .  S
Ni135       O834   1.917   1_655  S
Ni135      Ni840   2.394       .  S
Ni136       O835   1.917       .  S
Ni136       O838   1.918       .  S
Ni136      Ni839   2.394       .  S
C137        C260   1.435       .  S
C138        C256   1.435       .  S
C139        O836   1.280   1_655  A
C139        C249   1.435       .  S
C140        O834   1.280   1_655  A
C140        C332   1.435       .  S
O141       Ni149   1.918       .  S
O141        C151   1.280   1_545  A
O142       Ni149   1.918       .  S
O142        C152   1.280   1_545  A
O143       Ni149   1.917       .  S
O143        C153   1.280   1_545  A
O144       Ni149   1.917       .  S
O144        C154   1.280   1_545  A
O145       Ni150   1.918       .  S
O145        C506   1.280       .  A
O146       Ni150   1.917       .  S
O146        C505   1.280       .  A
O147       Ni150   1.918       .  S
O147        C504   1.280       .  A
O148       Ni150   1.918       .  S
O148        C503   1.280       .  A
Ni149      Ni502   2.394   1_545  S
Ni150      Ni501   2.394       .  S
C151        O500   1.280       .  A
C151        C265   1.435       .  S
C152        O499   1.280       .  A
C152        C272   1.435       .  S
C153        O498   1.280       .  A
C153        C245   1.435   1_565  S
C154        O497   1.280       .  A
C154        C316   1.435       .  S
O155       Ni163   1.917       .  S
O155        C165   1.280       .  A
O156       Ni163   1.917       .  S
O156        C166   1.280       .  A
O157       Ni163   1.918       .  S
O157        C167   1.280       .  A
O158       Ni163   1.918       .  S
O158        C168   1.280       .  A
O159       Ni164   1.918       .  S
O159        C168   1.280       .  A
O160       Ni164   1.918       .  S
O160        C167   1.280       .  A
O161       Ni164   1.917       .  S
O161        C166   1.280       .  A
O162       Ni164   1.917       .  S
O162        C165   1.280       .  A
Ni163      Ni164   2.394       .  S
C165        C241   1.435       .  S
C166        C308   1.435       .  S
C167        C257   1.435       .  S
C168        C253   1.435       .  S
O169       Ni881   1.918       .  S
O169        C531   1.280   1_545  A
O170       Ni177   1.918       .  S
O170        C532   1.280   1_545  A
O171       Ni881   1.917       .  S
O171       C1237   1.280   1_545  A
O172       Ni177   1.917   1_655  S
O172        C534   1.280   1_645  A
O173       Ni882   1.918       .  S
O173        C886   1.280       .  A
O174       Ni178   1.917   1_655  S
O174        C181   1.280   1_655  A
O175       Ni178   1.918       .  S
O175        C180   1.280       .  A
O176       Ni882   1.918       .  S
O176        C179   1.280       .  A
Ni177       O873   1.918   1_455  S
Ni177       O875   1.917       .  S
Ni177      Ni530   2.394   1_545  S
Ni178       O877   1.918       .  S
Ni178       O880   1.918   1_455  S
Ni178      Ni529   2.394       .  S
C179        O521   1.280       .  A
C179        C236   1.435       .  S
C180        O522   1.280       .  A
C180        C240   1.435       .  S
C181       O1227   1.280       .  A
C181        C261   1.435       .  S
C182        O524   1.280       .  A
C182        O877   1.280       .  A
C182        C293   1.435       .  S
O183       Ni191   1.917   1_655  S
O183        C193   1.280       .  A
O184       Ni895   1.917       .  S
O184        C898   1.280       .  A
O185       Ni895   1.918       .  S
O185        C195   1.280       .  A
O186       Ni191   1.918       .  S
O186        C196   1.280       .  A
O187       Ni192   1.918       .  S
O187        C196   1.280       .  A
O188       Ni896   1.918       .  S
O188        C195   1.280       .  A
O189       Ni192   1.918   1_655  S
O189        C194   1.280   1_655  A
O190       Ni896   1.917       .  S
O190        C897   1.280       .  A
Ni191       O888   1.917       .  S
Ni191       O889   1.918   1_455  S
Ni191      Ni192   2.394       .  S
Ni192       O892   1.918   1_455  S
Ni192       O894   1.917       .  S
C193        O894   1.280   1_655  A
C193        C252   1.435       .  S
C194        O888   1.280       .  A
C194        C289   1.435   1_455  S
C195        C228   1.435       .  S
C196        C229   1.435       .  S
O197       Ni205   1.918       .  S
O197        C559   1.280   1_545  A
O198       Ni205   1.918       .  S
O198        C560   1.280   1_545  A
O199       Ni205   1.917       .  S
O199        C561   1.280   1_545  A
O200       Ni205   1.917       .  S
O200        C562   1.280   1_545  A
O201       Ni206   1.918       .  S
O201        C210   1.280       .  A
O202       Ni206   1.918       .  S
O202        C209   1.280       .  A
O203       Ni206   1.918       .  S
O203        C208   1.280       .  A
O204       Ni206   1.918       .  S
O204        C207   1.280       .  A
Ni205      Ni558   2.394   1_545  S
Ni206      Ni557   2.394       .  S
C207        O549   1.280       .  A
C207        C237   1.435       .  S
C208        O550   1.280       .  A
C208        C233   1.435       .  S
C209        O551   1.280       .  A
C209        C248   1.435       .  S
C210        O552   1.280       .  A
C210        C280   1.435       .  S
O211       Ni219   1.918       .  S
O211        C221   1.280       .  A
O212       Ni219   1.918       .  S
O212        C222   1.280       .  A
O213       Ni219   1.917       .  S
O213        C223   1.280       .  A
O214       Ni219   1.917       .  S
O214        C224   1.280       .  A
O215       Ni220   1.917       .  S
O215        C224   1.280       .  A
O216       Ni220   1.917       .  S
O216        C223   1.280       .  A
O217       Ni220   1.918       .  S
O217        C222   1.280       .  A
O218       Ni220   1.918       .  S
O218        C221   1.280       .  A
Ni219      Ni220   2.394       .  S
C221        C232   1.435       .  S
C222        C225   1.435       .  S
C223        C244   1.435       .  S
C224        C276   1.435       .  S
C225        C226   1.205       .  T
C226        C227   1.412       .  S
C227        C228   1.205       .  T
C229        C230   1.206       .  T
C230        C231   1.412       .  S
C231        C232   1.206       .  T
C233        C234   1.206       .  T
C234        C235   1.412       .  S
C235        C236   1.206       .  T
C237        C238   1.206       .  T
C238        C239   1.412       .  S
C239        C240   1.206       .  T
C241        C242   1.205       .  T
C242        C243   1.411       .  S
C243        C244   1.205       .  T
C245        C246   1.205       .  T
C246        C599   1.412   1_545  S
C247        C248   1.205       .  T
C247        C598   1.412       .  S
C249        C250   1.205       .  T
C250        C251   1.412       .  S
C251        C252   1.205       .  T
C253        C254   1.206       .  T
C254        C255   1.412       .  S
C255        C256   1.206       .  T
C257        C258   1.206       .  T
C258        C259   1.412       .  S
C259        C260   1.206       .  T
C261        C614   1.205       .  T
C262        C613   1.205       .  T
C262        C263   1.412       .  S
C263        C616   1.205       .  T
C264        C830   1.435       .  S
C264        C615   1.205   1_655  T
C265        C266   1.206       .  T
C266        C267   1.412   1_565  S
C267        C268   1.206       .  T
C269        C270   1.205       .  T
C270        C623   1.412       .  S
C271        C624   1.206       .  T
C271        C622   1.412       .  S
C272        C623   1.205       .  T
C273        C274   1.205       .  T
C274        C275   1.412       .  S
C275        C276   1.205       .  T
C277        C630   1.205       .  T
C278        C629   1.205       .  T
C278        C279   1.412       .  S
C279        C280   1.205       .  T
C281        C282   1.206       .  T
C282        C283   1.412       .  S
C283        C284   1.206       .  T
C285        C286   1.205       .  T
C286        C287   1.412       .  S
C287        C288   1.205       .  T
C289        C290   1.205   1_655  T
C290        C291   1.412       .  S
C291        C292   1.205       .  T
C293        C294   1.205       .  T
C294        C295   1.412       .  S
C295        C296   1.205       .  T
C297        C298   1.206       .  T
C298       C1003   1.412   1_655  S
C299       C1004   1.206       .  T
C299       C1002   1.412       .  S
C300       C1003   1.206       .  T
C301        C302   1.206       .  T
C302        C303   1.412       .  S
C303        C304   1.206       .  T
C305        C306   1.205       .  T
C306        C307   1.412       .  S
C307        C308   1.205       .  T
C309        C310   1.205       .  T
C310        C311   1.412   1_556  S
C311        C312   1.205       .  T
C313        C314   1.205   1_545  T
C314        C667   1.412       .  S
C315        C668   1.205       .  T
C315        C666   1.412       .  S
C316        C667   1.205       .  T
C317        C670   1.205       .  T
C318        C669   1.205       .  T
C318        C671   1.412   1_554  S
C319        C320   1.205       .  T
C319        C670   1.412   1_556  S
C320        C449   1.435       .  S
C321        C322   1.206       .  T
C322        C323   1.412       .  S
C323        C324   1.206       .  T
C325        C326   1.205       .  T
C326        C327   1.412       .  S
C327        C328   1.205       .  T
C329        C330   1.205       .  T
C330        C331   1.412       .  S
C331        C332   1.205       .  T
C333        C334   1.205       .  T
C334        C335   1.412   1_556  S
C335        C336   1.205       .  T
C337       C1394   1.205       .  T
C338       C1393   1.205       .  T
C338       C1043   1.412   1_545  S
C339        C692   1.205       .  T
C339       C1042   1.412   1_565  S
C340        C691   1.205   1_655  T
C341        C694   1.205       .  T
C342        C693   1.205       .  T
C342        C343   1.411   1_556  S
C343        C696   1.205   1_655  T
C344        C695   1.205       .  T
C345        C346   1.206       .  T
C346        C347   1.412       .  S
C347        C348   1.206       .  T
C349        C350   1.206       .  T
C350       C1055   1.412       .  S
C351       C1056   1.206   1_455  T
C351       C1054   1.412       .  S
C352       C1055   1.206       .  T
O353        C715   1.280       .  A
O354       Ni361   1.917       .  S
O354        C716   1.280   1_545  A
O355       Ni361   1.918   1_565  S
O355        C365   1.280       .  A
O356        C366   1.280       .  A
O357       C1070   1.280       .  A
O358       Ni362   1.918       .  S
O358       C1069   1.280   1_455  A
O359        C364   1.280       .  A
O360       Ni362   1.918   1_545  S
O360        C363   1.280   1_445  A
Ni361     Ni1066   2.394   1_545  S
Ni362     Ni1065   2.394   1_465  S
C363        O705   1.280       .  A
C363        C692   1.435       .  S
C364        O706   1.280   1_455  A
C364        C696   1.435       .  S
C365       O1062   1.280       .  A
C365        C697   1.435       .  S
C366       O1061   1.280       .  A
C366        C701   1.435       .  S
O367       Ni375   1.918       .  S
O367       C1081   1.280       .  A
O368       Ni375   1.917       .  S
O368       C1082   1.280       .  A
O369       Ni375   1.918       .  S
O369        C379   1.280       .  A
O370       Ni375   1.918       .  S
O370        C380   1.280       .  A
O371       Ni376   1.918       .  S
O371       C1084   1.280       .  A
O372       Ni376   1.918       .  S
O372       C1083   1.280   1_455  A
O373       Ni376   1.917       .  S
O373        C378   1.280   1_455  A
O374       Ni376   1.917       .  S
O374        C377   1.280   1_455  A
Ni375     Ni1080   2.394       .  S
Ni376     Ni1079   2.394   1_455  S
C377       O1071   1.280       .  A
C377        C688   1.435   1_655  S
C378       O1072   1.280       .  A
C378        C681   1.435       .  S
C379       O1076   1.280       .  A
C379        C700   1.435       .  S
C380       O1075   1.280       .  A
C380        C704   1.435       .  S
O381       Ni389   1.917       .  S
O381        C391   1.280       .  A
O383        C393   1.280       .  A
O384       Ni389   1.918       .  S
O384        C394   1.280       .  A
O385       Ni390   1.918       .  S
O385        C394   1.280       .  A
O386        C393   1.280       .  A
O387       Ni390   1.917       .  S
O387        C392   1.280       .  A
Ni389      Ni390   2.394       .  S
C391        C665   1.435       .  S
C392        C669   1.435       .  S
C393        C676   1.435       .  S
C394        C680   1.435       .  S
O395       Ni403   1.918       .  S
O395        C405   1.280       .  A
O396       Ni403   1.918       .  S
O396        C406   1.280       .  A
O397       Ni403   1.917       .  S
O397        C407   1.280       .  A
O398       Ni403   1.918       .  S
O398        C408   1.280       .  A
O399       Ni404   1.918       .  S
O399        C408   1.280       .  A
O400       Ni404   1.917       .  S
O400        C407   1.280       .  A
O401       Ni404   1.918       .  S
O401        C406   1.280       .  A
O402       Ni404   1.918       .  S
O402        C405   1.280       .  A
Ni403      Ni404   2.394       .  S
C405        C677   1.435       .  S
C406        C673   1.435       .  S
C407        C657   1.435       .  S
C408        C664   1.435       .  S
O410       Ni417   1.917       .  S
O411       Ni417   1.918       .  S
O411        C421   1.280       .  A
O412        C422   1.280       .  A
O413       Ni418   1.918       .  S
O413       C1126   1.280       .  A
O414       C1125   1.280       .  A
O415       Ni418   1.917   1_545  S
O415       C1124   1.280       .  A
O416       C1123   1.280       .  A
Ni417      Ni770   2.394   1_455  S
Ni418      Ni769   2.394       .  S
C419       O1120   1.280   1_455  A
C419        C693   1.435   1_455  S
C420       O1119   1.280   1_455  A
C420        C648   1.435       .  S
C421       O1118   1.280   1_455  A
C421        C656   1.435       .  S
C422       O1117   1.280   1_455  A
C422        C652   1.435       .  S
O423       Ni431   1.917       .  S
O423        C433   1.280       .  A
O424       Ni431   1.917       .  S
O424        C434   1.280       .  A
O425       Ni431   1.918       .  S
O425        C435   1.280       .  A
O426       Ni431   1.918       .  S
O426        C436   1.280   1_455  A
O427       Ni432   1.918       .  S
O427       C1140   1.280       .  A
O428       Ni432   1.918       .  S
O428       C1139   1.280       .  A
O429       Ni432   1.918       .  S
O429       C1138   1.280       .  A
O430       Ni432   1.918       .  S
O430       C1137   1.280       .  A
Ni431     Ni1136   2.394   1_455  S
Ni432     Ni1135   2.394       .  S
C433       O1134   1.280   1_455  A
C433        C644   1.435       .  S
C434       O1133   1.280   1_455  A
C434        C685   1.435       .  S
C435       O1132   1.280   1_455  A
C435        C653   1.435       .  S
C436       O1131   1.280       .  A
C436        C649   1.435       .  S
O437       Ni445   1.918       .  S
O437        C447   1.280       .  A
O438        C448   1.280       .  A
O439       Ni445   1.917   1_545  S
O439        C449   1.280   1_545  A
O440        C450   1.280       .  A
O442       Ni446   1.917       .  S
O443       Ni446   1.918       .  S
O443        C448   1.280       .  A
O444        C447   1.280       .  A
C447        C636   1.435       .  S
C448        C637   1.435       .  S
C450        C629   1.435       .  S
O451       Ni459   1.918       .  S
O451        C461   1.280       .  A
O452       Ni459   1.918       .  S
O452        C462   1.280       .  A
O453       Ni459   1.917       .  S
O453        C463   1.280       .  A
O454       Ni459   1.918       .  S
O454        C464   1.280       .  A
O455       Ni460   1.918       .  S
O455        C464   1.280       .  A
O456       Ni460   1.918       .  S
O456        C463   1.280       .  A
O457       Ni460   1.918       .  S
O457        C462   1.280       .  A
O458       Ni460   1.918       .  S
O458        C461   1.280       .  A
Ni459      Ni460   2.394       .  S
C461        C640   1.435       .  S
C462        C633   1.435       .  S
C463        C625   1.435       .  S
C464        C661   1.435       .  S
O465       Ni473   1.918       .  S
O466      Ni1177   1.918       .  S
O467       Ni473   1.917   1_655  S
O467        C477   1.280   1_565  A
O468      Ni1177   1.917       .  S
O468        C478   1.280       .  A
O469      Ni1178   1.917       .  S
O469        C830   1.280       .  A
O470       Ni474   1.917       .  S
O470        C829   1.280       .  A
O471       Ni474   1.918       .  S
O471        C476   1.280       .  A
O472      Ni1178   1.918   1_455  S
O472        C475   1.280       .  A
Ni473      O1170   1.918   1_455  S
Ni473      O1172   1.917       .  S
Ni473      Ni826   2.394   1_565  S
Ni474      O1173   1.917       .  S
Ni474      O1176   1.918       .  S
Ni474      Ni825   2.394       .  S
C475        C621   1.435       .  S
C476        C620   1.435       .  S
C477        O822   1.280   1_655  A
C477        C689   1.435       .  S
C478        O821   1.280   1_565  A
C478       C1320   1.435       .  S
O479       Ni487   1.918   1_455  S
O479        C489   1.280       .  A
O480      Ni1191   1.918       .  S
O480        C490   1.280       .  A
O481       Ni487   1.917       .  S
O481        C491   1.280       .  A
O482      Ni1191   1.917       .  S
O482       C1196   1.280       .  A
O483      Ni1192   1.917       .  S
O483        C492   1.280       .  A
O484       Ni488   1.917       .  S
O484       C1195   1.280       .  A
O485       Ni488   1.918       .  S
O485        C490   1.280       .  A
O486      Ni1192   1.918   1_455  S
O486        C489   1.280       .  A
Ni487      O1184   1.918       .  S
Ni487      O1186   1.917   1_655  S
Ni487     Ni1192   2.394       .  S
Ni488      O1187   1.917       .  S
Ni488      O1190   1.918       .  S
Ni488     Ni1191   2.394       .  S
C489        C612   1.435       .  S
C490        C608   1.435       .  S
C491       O1188   1.280   1_655  A
C491        C601   1.435       .  S
C492       O1186   1.280   1_655  A
C492        C684   1.435       .  S
O493       Ni501   1.918       .  S
O493        C503   1.280       .  A
O494       Ni501   1.918       .  S
O494        C504   1.280       .  A
O495       Ni501   1.917       .  S
O495        C505   1.280       .  A
O496       Ni501   1.917       .  S
O496        C506   1.280       .  A
O497       Ni502   1.917       .  S
O498       Ni502   1.917       .  S
O499       Ni502   1.918       .  S
O500       Ni502   1.918       .  S
C503        C617   1.435       .  S
C504        C624   1.435       .  S
C505        C597   1.435       .  S
C506        C668   1.435       .  S
O507       Ni515   1.917       .  S
O507        C517   1.280       .  A
O508       Ni515   1.917       .  S
O508        C518   1.280       .  A
O509       Ni515   1.918       .  S
O509        C519   1.280       .  A
O510       Ni515   1.918       .  S
O510        C520   1.280       .  A
O511       Ni516   1.918       .  S
O511        C520   1.280       .  A
O512       Ni516   1.918       .  S
O512        C519   1.280       .  A
O513       Ni516   1.917       .  S
O513        C518   1.280       .  A
O514       Ni516   1.917       .  S
O514        C517   1.280       .  A
Ni515      Ni516   2.394       .  S
C517        C593   1.435       .  S
C518        C660   1.435       .  S
C519        C609   1.435       .  S
C520        C605   1.435       .  S
O521      Ni1233   1.918       .  S
O522       Ni529   1.918       .  S
O523      Ni1233   1.917       .  S
O523        C885   1.280       .  A
O524       Ni529   1.917       .  S
O525      Ni1234   1.918       .  S
O525       C1238   1.280       .  A
O526       Ni530   1.917   1_655  S
O526        C533   1.280   1_655  A
O527       Ni530   1.918       .  S
O527        C532   1.280       .  A
O528      Ni1234   1.918       .  S
O528        C531   1.280       .  A
Ni529      O1225   1.918   1_455  S
Ni529      O1227   1.917       .  S
Ni530      O1229   1.918       .  S
Ni530      O1232   1.918   1_455  S
C531        C588   1.435       .  S
C532        C592   1.435       .  S
C533        O875   1.280   1_565  A
C533        C613   1.435       .  S
C534       O1229   1.280       .  A
C534        C645   1.435   1_455  S
O535       Ni543   1.917   1_655  S
O535        C545   1.280       .  A
O536      Ni1247   1.917       .  S
O536       C1250   1.280       .  A
O537      Ni1247   1.918       .  S
O537        C547   1.280       .  A
O538       Ni543   1.918       .  S
O538        C548   1.280       .  A
O539       Ni544   1.918       .  S
O539        C548   1.280       .  A
O540      Ni1248   1.918       .  S
O540        C547   1.280       .  A
O541       Ni544   1.918   1_655  S
O541        C546   1.280   1_655  A
O542      Ni1248   1.917       .  S
O542       C1249   1.280       .  A
Ni543      O1240   1.917       .  S
Ni543      O1241   1.918   1_455  S
Ni543      Ni544   2.394       .  S
Ni544      O1244   1.918   1_455  S
Ni544      O1246   1.917       .  S
C545       O1246   1.280   1_655  A
C545        C604   1.435       .  S
C546       O1240   1.280       .  A
C546        C641   1.435   1_455  S
C547        C580   1.435       .  S
C548        C581   1.435       .  S
O549       Ni557   1.918       .  S
O550       Ni557   1.918       .  S
O551       Ni557   1.917       .  S
O552       Ni557   1.917       .  S
O553       Ni558   1.918       .  S
O553        C562   1.280       .  A
O554       Ni558   1.917       .  S
O554        C561   1.280       .  A
O555       Ni558   1.918       .  S
O555        C560   1.280       .  A
O556       Ni558   1.918       .  S
O556        C559   1.280       .  A
C559        C589   1.435       .  S
C560        C585   1.435       .  S
C561        C600   1.435       .  S
C562        C632   1.435       .  S
O563       Ni571   1.918       .  S
O563        C573   1.280       .  A
O564       Ni571   1.918       .  S
O564        C574   1.280       .  A
O565       Ni571   1.917       .  S
O565        C575   1.280       .  A
O566       Ni571   1.917       .  S
O566        C576   1.280       .  A
O567       Ni572   1.917       .  S
O567        C576   1.280       .  A
O568       Ni572   1.917       .  S
O568        C575   1.280       .  A
O569       Ni572   1.918       .  S
O569        C574   1.280       .  A
O570       Ni572   1.918       .  S
O570        C573   1.280       .  A
Ni571      Ni572   2.394       .  S
C573        C584   1.435       .  S
C574        C577   1.435       .  S
C575        C596   1.435       .  S
C576        C628   1.435       .  S
C577        C578   1.205       .  T
C578        C579   1.412       .  S
C579        C580   1.205       .  T
C581        C582   1.206       .  T
C582        C583   1.412       .  S
C583        C584   1.206       .  T
C585        C586   1.205       .  T
C586        C587   1.412       .  S
C587        C588   1.205       .  T
C589        C590   1.206       .  T
C590        C591   1.412       .  S
C591        C592   1.206       .  T
C593        C594   1.205       .  T
C594        C595   1.411       .  S
C595        C596   1.205       .  T
C597        C598   1.205       .  T
C599        C600   1.205       .  T
C601        C602   1.205       .  T
C602        C603   1.412       .  S
C603        C604   1.205       .  T
C605        C606   1.206       .  T
C606        C607   1.412       .  S
C607        C608   1.206       .  T
C609        C610   1.206       .  T
C610        C611   1.412       .  S
C611        C612   1.206       .  T
C614        C615   1.412       .  S
C616       C1182   1.435       .  S
C617        C618   1.206       .  T
C618        C619   1.412       .  S
C619        C620   1.206       .  T
C621        C622   1.206       .  T
C625        C626   1.205       .  T
C626        C627   1.412       .  S
C627        C628   1.205       .  T
C630        C631   1.412   1_545  S
C631        C632   1.205       .  T
C633        C634   1.206       .  T
C634        C635   1.412       .  S
C635        C636   1.206       .  T
C637        C638   1.205       .  T
C638        C639   1.412       .  S
C639        C640   1.205       .  T
C641        C642   1.205   1_655  T
C642        C643   1.412       .  S
C643        C644   1.205       .  T
C645        C646   1.205       .  T
C646        C647   1.412   1_665  S
C647        C648   1.205       .  T
C649        C650   1.206       .  T
C650       C1355   1.412   1_655  S
C651       C1356   1.206       .  T
C651       C1354   1.412       .  S
C652       C1355   1.206       .  T
C653        C654   1.206       .  T
C654        C655   1.412       .  S
C655        C656   1.206       .  T
C657        C658   1.205       .  T
C658        C659   1.412       .  S
C659        C660   1.205       .  T
C661        C662   1.205       .  T
C662        C663   1.412   1_556  S
C663        C664   1.205       .  T
C665        C666   1.205       .  T
C671        C672   1.205       .  T
C673        C674   1.206       .  T
C674        C675   1.412       .  S
C675        C676   1.206       .  T
C677        C678   1.205       .  T
C678        C679   1.412       .  S
C679        C680   1.205       .  T
C681        C682   1.205       .  T
C682        C683   1.412       .  S
C683        C684   1.205       .  T
C685        C686   1.205       .  T
C686        C687   1.412   1_556  S
C687        C688   1.205       .  T
C689       C1042   1.205       .  T
C690       C1041   1.205       .  T
C690       C1395   1.412       .  S
C691       C1394   1.412       .  S
C694        C695   1.411   1_556  S
C697        C698   1.206       .  T
C698        C699   1.412       .  S
C699        C700   1.206       .  T
C701        C702   1.205       .  T
C702       C1407   1.412       .  S
C703       C1408   1.206       .  T
C703       C1406   1.412       .  S
C704       C1407   1.206       .  T
O705      Ni1065   1.917   1_565  S
O706       Ni713   1.917       .  S
O707       Ni713   1.918       .  S
O707        C717   1.280       .  A
O708      Ni1065   1.918       .  S
O708        C718   1.280       .  A
O709      Ni1066   1.918   1_545  S
O710       Ni714   1.918       .  S
O711      Ni1066   1.917       .  S
O711        C716   1.280       .  A
O712       Ni714   1.917       .  S
O712        C715   1.280       .  A
Ni713      O1057   1.917       .  S
Ni713      O1060   1.918       .  S
Ni714      O1061   1.918       .  S
Ni714      O1063   1.917       .  S
C715       C1044   1.435       .  S
C716       C1048   1.435       .  S
C717       C1049   1.435       .  S
C718       C1053   1.435   1_655  S
O719       Ni727   1.918       .  S
O720       Ni727   1.917       .  S
O721       Ni727   1.918       .  S
O721        C731   1.280       .  A
O722       Ni727   1.918       .  S
O722        C732   1.280       .  A
O723       Ni728   1.918       .  S
O724       Ni728   1.918       .  S
O725       Ni728   1.917       .  S
O725        C730   1.280       .  A
O726       Ni728   1.917       .  S
O726        C729   1.280       .  A
C729       C1040   1.435       .  S
C730       C1033   1.435       .  S
C731       C1052   1.435       .  S
C732       C1056   1.435       .  S
O733       Ni741   1.917   1_565  S
O733        C743   1.280   1_565  A
O734      Ni1093   1.917       .  S
O734       C1096   1.280       .  A
O735      Ni1093   1.918       .  S
O735        C745   1.280       .  A
O736       Ni741   1.918       .  S
O736        C746   1.280       .  A
O737       Ni742   1.918       .  S
O737        C746   1.280       .  A
O738      Ni1094   1.918       .  S
O738        C745   1.280       .  A
O739       Ni742   1.917   1_565  S
O739        C744   1.280       .  A
O740      Ni1094   1.918       .  S
O740       C1095   1.280       .  A
Ni741      O1086   1.918       .  S
Ni741      O1087   1.918   1_545  S
Ni741      Ni742   2.394       .  S
Ni742      O1090   1.918   1_545  S
Ni742      O1092   1.917       .  S
C743       O1092   1.280       .  A
C743       C1017   1.435       .  S
C744       O1086   1.280   1_565  A
C744       C1021   1.435       .  S
C745       C1028   1.435       .  S
C746       C1032   1.435       .  S
O747       Ni755   1.918       .  S
O747        C757   1.280       .  A
O748       Ni755   1.918       .  S
O748        C758   1.280       .  A
O749       Ni755   1.917       .  S
O749        C759   1.280       .  A
O750       Ni755   1.918       .  S
O750        C760   1.280       .  A
O751       Ni756   1.918       .  S
O751        C760   1.280       .  A
O752       Ni756   1.917       .  S
O752        C759   1.280       .  A
O753       Ni756   1.918       .  S
O753        C758   1.280       .  A
O754       Ni756   1.918       .  S
O754        C757   1.280       .  A
Ni755      Ni756   2.394       .  S
C757       C1029   1.435       .  S
C758       C1025   1.435       .  S
C759       C1009   1.435       .  S
C760       C1016   1.435       .  S
O761      Ni1121   1.917       .  S
O761       C1123   1.280       .  A
O762       Ni769   1.918       .  S
O762       C1124   1.280   1_565  A
O763       Ni769   1.918   1_545  S
O763        C773   1.280       .  A
O764      Ni1121   1.918       .  S
O764        C774   1.280       .  A
O765       Ni770   1.918       .  S
O766      Ni1122   1.918   1_545  S
O767       Ni770   1.917       .  S
O768      Ni1122   1.917       .  S
Ni769      O1113   1.917   1_565  S
Ni769      O1116   1.918       .  S
Ni770      O1118   1.918       .  S
Ni770      O1120   1.917       .  S
C771       O1113   1.280   1_565  A
C771       C1045   1.435       .  S
C772       O1114   1.280       .  A
C772       C1000   1.435       .  S
C773       C1008   1.435       .  S
C774       C1004   1.435       .  S
O775       Ni783   1.917       .  S
O775        C785   1.280       .  A
O776       Ni783   1.917       .  S
O776        C786   1.280       .  A
O777       Ni783   1.918       .  S
O777        C787   1.280       .  A
O778       Ni783   1.918       .  S
O778        C788   1.280       .  A
O779       Ni784   1.918       .  S
O780       Ni784   1.918       .  S
O781       Ni784   1.918       .  S
O782       Ni784   1.918       .  S
C785        C996   1.435       .  S
C786       C1037   1.435       .  S
C787       C1005   1.435       .  S
C788       C1001   1.435       .  S
O789       Ni797   1.918       .  S
O789        C799   1.280       .  A
O790      Ni1149   1.918   1_545  S
O790        C800   1.280       .  A
O791       Ni797   1.917       .  S
O791        C801   1.280       .  A
O792      Ni1149   1.917       .  S
O792        C802   1.280   1_565  A
O793      Ni1150   1.917       .  S
O793       C1154   1.280       .  A
O794       Ni798   1.917       .  S
O794       C1153   1.280       .  A
O795       Ni798   1.918   1_545  S
O795        C800   1.280       .  A
O796      Ni1150   1.918       .  S
O796        C799   1.280       .  A
Ni797      O1142   1.918       .  S
Ni797      O1144   1.917       .  S
Ni797     Ni1150   2.394       .  S
Ni798      O1145   1.918   1_565  S
Ni798      O1148   1.918       .  S
Ni798     Ni1149   2.394       .  S
C799        C988   1.435       .  S
C800        C989   1.435       .  S
C801       O1146   1.280       .  A
C801       C1376   1.435       .  S
C802       O1145   1.280       .  A
C802        C981   1.435       .  S
O803       Ni811   1.918       .  S
O803        C813   1.280       .  A
O804       Ni811   1.918       .  S
O804        C814   1.280       .  A
O805       Ni811   1.917       .  S
O805        C815   1.280       .  A
O806       Ni811   1.918       .  S
O806        C816   1.280       .  A
O807       Ni812   1.918       .  S
O807        C816   1.280       .  A
O808       Ni812   1.918       .  S
O808        C815   1.280       .  A
O809       Ni812   1.918       .  S
O809        C814   1.280       .  A
O810       Ni812   1.918       .  S
O810        C813   1.280       .  A
Ni811      Ni812   2.394       .  S
C813        C992   1.435       .  S
C814        C985   1.435       .  S
C815        C977   1.435       .  S
C816       C1013   1.435       .  S
O817       Ni825   1.918       .  S
O817       C1179   1.280       .  A
O818       C1180   1.280       .  A
O819       Ni825   1.917       .  S
O819        C829   1.280       .  A
O820        C830   1.280   1_455  A
O822       Ni826   1.917       .  S
O823       Ni826   1.918   1_655  S
O823        C828   1.280       .  A
O824        C827   1.280   1_545  A
C827       O1169   1.280       .  A
C827        C973   1.435       .  S
C828       O1170   1.280   1_545  A
C828        C972   1.435       .  S
C829       C1041   1.435       .  S
O831       Ni839   1.918       .  S
O831        C841   1.280       .  A
O832        C842   1.280       .  A
O833       Ni839   1.917       .  S
O833        C843   1.280       .  A
O835        C844   1.280       .  A
O836       Ni840   1.917   1_455  S
O837       Ni840   1.918       .  S
O837        C842   1.280       .  A
O838        C841   1.280       .  A
C841        C964   1.435       .  S
C842        C960   1.435       .  S
C843        C953   1.435       .  S
C844       C1036   1.435       .  S
O845       Ni853   1.918       .  S
O845        C855   1.280   1_545  A
O846       Ni853   1.918       .  S
O846        C856   1.280   1_545  A
O847       Ni853   1.917       .  S
O847        C857   1.280   1_545  A
O848       Ni853   1.917       .  S
O848        C858   1.280   1_545  A
O849       Ni854   1.917       .  S
O849       C1210   1.280       .  A
O850       Ni854   1.917       .  S
O850       C1209   1.280       .  A
O851       Ni854   1.918       .  S
O851       C1208   1.280       .  A
O852       Ni854   1.918       .  S
O852       C1207   1.280       .  A
Ni853     Ni1206   2.394   1_545  S
Ni854     Ni1205   2.394       .  S
C855       O1204   1.280       .  A
C855        C969   1.435       .  S
C856       O1203   1.280       .  A
C856        C976   1.435       .  S
C857       O1202   1.280       .  A
C857        C949   1.435   1_565  S
C858       O1201   1.280       .  A
C858       C1020   1.435       .  S
O859       Ni867   1.917       .  S
O859        C869   1.280       .  A
O860       Ni867   1.917       .  S
O860        C870   1.280       .  A
O861       Ni867   1.918       .  S
O861        C871   1.280       .  A
O862       Ni867   1.918       .  S
O862        C872   1.280       .  A
O863       Ni868   1.918       .  S
O863        C872   1.280       .  A
O864       Ni868   1.918       .  S
O864        C871   1.280       .  A
O865       Ni868   1.917       .  S
O865        C870   1.280       .  A
O866       Ni868   1.917       .  S
O866        C869   1.280       .  A
Ni867      Ni868   2.394       .  S
C869        C945   1.435       .  S
C870       C1012   1.435       .  S
C871        C961   1.435       .  S
C872        C957   1.435       .  S
O873       C1235   1.280   1_545  A
O874       Ni881   1.918       .  S
O874       C1236   1.280   1_545  A
O876       Ni881   1.917       .  S
O876       C1238   1.280   1_545  A
O878       Ni882   1.917       .  S
O878        C885   1.280       .  A
O879       Ni882   1.918       .  S
O879        C884   1.280       .  A
O880        C883   1.280       .  A
Ni881     Ni1234   2.394   1_545  S
Ni882     Ni1233   2.394       .  S
C883       O1225   1.280       .  A
C883        C940   1.435       .  S
C884       O1226   1.280       .  A
C884        C944   1.435       .  S
C885        C965   1.435       .  S
C886       O1228   1.280       .  A
C886        C997   1.435       .  S
O887       Ni895   1.917       .  S
O887        C897   1.280       .  A
O889        C899   1.280       .  A
O890       Ni895   1.918       .  S
O890        C900   1.280       .  A
O891       Ni896   1.918       .  S
O891        C900   1.280       .  A
O892        C899   1.280       .  A
O893       Ni896   1.918       .  S
O893        C898   1.280       .  A
Ni895      Ni896   2.394       .  S
C897        C956   1.435       .  S
C898        C993   1.435       .  S
C899        C932   1.435       .  S
C900        C933   1.435       .  S
O901       Ni909   1.918       .  S
O901       C1263   1.280   1_545  A
O902       Ni909   1.918       .  S
O902       C1264   1.280   1_545  A
O903       Ni909   1.917       .  S
O903       C1265   1.280   1_545  A
O904       Ni909   1.917       .  S
O904       C1266   1.280   1_545  A
O905       Ni910   1.918       .  S
O905        C914   1.280       .  A
O906       Ni910   1.918       .  S
O906        C913   1.280       .  A
O907       Ni910   1.918       .  S
O907        C912   1.280       .  A
O908       Ni910   1.918       .  S
O908        C911   1.280       .  A
Ni909     Ni1262   2.394   1_545  S
Ni910     Ni1261   2.394       .  S
C911       O1253   1.280       .  A
C911        C941   1.435       .  S
C912       O1254   1.280       .  A
C912        C937   1.435       .  S
C913       O1255   1.280       .  A
C913        C952   1.435       .  S
C914       O1256   1.280       .  A
C914        C984   1.435       .  S
O915       Ni923   1.918       .  S
O915        C925   1.280       .  A
O916       Ni923   1.918       .  S
O916        C926   1.280       .  A
O917       Ni923   1.917       .  S
O917        C927   1.280       .  A
O918       Ni923   1.917       .  S
O918        C928   1.280       .  A
O919       Ni924   1.917       .  S
O919        C928   1.280       .  A
O920       Ni924   1.917       .  S
O920        C927   1.280       .  A
O921       Ni924   1.918       .  S
O921        C926   1.280       .  A
O922       Ni924   1.918       .  S
O922        C925   1.280       .  A
Ni923      Ni924   2.394       .  S
C925        C936   1.435       .  S
C926        C929   1.435       .  S
C927        C948   1.435       .  S
C928        C980   1.435       .  S
C929        C930   1.205       .  T
C930        C931   1.412       .  S
C931        C932   1.205       .  T
C933        C934   1.206       .  T
C934        C935   1.412       .  S
C935        C936   1.206       .  T
C937        C938   1.206       .  T
C938        C939   1.412       .  S
C939        C940   1.206       .  T
C941        C942   1.206       .  T
C942        C943   1.412       .  S
C943        C944   1.206       .  T
C945        C946   1.205       .  T
C946        C947   1.411       .  S
C947        C948   1.205       .  T
C949        C950   1.205       .  T
C950       C1303   1.412   1_545  S
C951        C952   1.205       .  T
C951       C1302   1.412       .  S
C953        C954   1.205       .  T
C954        C955   1.412       .  S
C955        C956   1.205       .  T
C957        C958   1.206       .  T
C958        C959   1.412       .  S
C959        C960   1.206       .  T
C961        C962   1.206       .  T
C962        C963   1.412       .  S
C963        C964   1.206       .  T
C965       C1318   1.205       .  T
C966       C1317   1.205       .  T
C966        C967   1.412       .  S
C967       C1320   1.205       .  T
C968       C1319   1.205       .  T
C969        C970   1.206       .  T
C970        C971   1.412   1_565  S
C971        C972   1.206       .  T
C973        C974   1.205       .  T
C974       C1327   1.412       .  S
C975       C1328   1.206       .  T
C975       C1326   1.412       .  S
C976       C1327   1.205       .  T
C977        C978   1.205       .  T
C978        C979   1.412       .  S
C979        C980   1.205       .  T
C981       C1334   1.205       .  T
C982       C1333   1.205       .  T
C982        C983   1.412       .  S
C983        C984   1.205       .  T
C985        C986   1.206       .  T
C986        C987   1.412       .  S
C987        C988   1.206       .  T
C989        C990   1.205       .  T
C990        C991   1.412       .  S
C991        C992   1.205       .  T
C993        C994   1.205       .  T
C994        C995   1.412       .  S
C995        C996   1.205       .  T
C997        C998   1.205       .  T
C998        C999   1.412       .  S
C999       C1000   1.205       .  T
C1001      C1002   1.206       .  T
C1005      C1006   1.206       .  T
C1006      C1007   1.412       .  S
C1007      C1008   1.206       .  T
C1009      C1010   1.205       .  T
C1010      C1011   1.412       .  S
C1011      C1012   1.205       .  T
C1013      C1014   1.205       .  T
C1014      C1015   1.412   1_556  S
C1015      C1016   1.205       .  T
C1017      C1018   1.205   1_545  T
C1018      C1371   1.412       .  S
C1019      C1372   1.205       .  T
C1019      C1370   1.412       .  S
C1020      C1371   1.205       .  T
C1021      C1374   1.205       .  T
C1022      C1373   1.205       .  T
C1022      C1375   1.412   1_554  S
C1023      C1024   1.205       .  T
C1023      C1374   1.412   1_556  S
C1024      C1153   1.435       .  S
C1025      C1026   1.206       .  T
C1026      C1027   1.412       .  S
C1027      C1028   1.206       .  T
C1029      C1030   1.205       .  T
C1030      C1031   1.412       .  S
C1031      C1032   1.205       .  T
C1033      C1034   1.205       .  T
C1034      C1035   1.412       .  S
C1035      C1036   1.205       .  T
C1037      C1038   1.205       .  T
C1038      C1039   1.412   1_556  S
C1039      C1040   1.205       .  T
C1043      C1396   1.205       .  T
C1044      C1395   1.205       .  T
C1045      C1398   1.205       .  T
C1046      C1397   1.205       .  T
C1046      C1047   1.411   1_556  S
C1047      C1400   1.205       .  T
C1048      C1399   1.205       .  T
C1049      C1050   1.206       .  T
C1050      C1051   1.412       .  S
C1051      C1052   1.206       .  T
C1053      C1054   1.206       .  T
O1058     Ni1065   1.917       .  S
O1059     Ni1065   1.918   1_565  S
O1059      C1069   1.280       .  A
O1060      C1070   1.280   1_655  A
O1062     Ni1066   1.918       .  S
O1063      C1068   1.280       .  A
O1064     Ni1066   1.918   1_545  S
O1064      C1067   1.280   1_545  A
C1067      C1396   1.435       .  S
C1068      C1400   1.435       .  S
C1069      C1401   1.435       .  S
C1070      C1405   1.435       .  S
O1071     Ni1079   1.918       .  S
O1072     Ni1079   1.917       .  S
O1073     Ni1079   1.918       .  S
O1073      C1083   1.280       .  A
O1074     Ni1079   1.918       .  S
O1074      C1084   1.280   1_655  A
O1075     Ni1080   1.918       .  S
O1076     Ni1080   1.918       .  S
O1077     Ni1080   1.917       .  S
O1077      C1082   1.280       .  A
O1078     Ni1080   1.917       .  S
O1078      C1081   1.280       .  A
C1081      C1392   1.435       .  S
C1082      C1385   1.435       .  S
C1083      C1404   1.435       .  S
C1084      C1408   1.435       .  S
O1085     Ni1093   1.917       .  S
O1085      C1095   1.280       .  A
O1087      C1097   1.280       .  A
O1088     Ni1093   1.918       .  S
O1088      C1098   1.280       .  A
O1089     Ni1094   1.918       .  S
O1089      C1098   1.280       .  A
O1090      C1097   1.280       .  A
O1091     Ni1094   1.917       .  S
O1091      C1096   1.280       .  A
Ni1093    Ni1094   2.394       .  S
C1095      C1369   1.435       .  S
C1096      C1373   1.435       .  S
C1097      C1380   1.435       .  S
C1098      C1384   1.435       .  S
O1099     Ni1107   1.918       .  S
O1099      C1109   1.280       .  A
O1100     Ni1107   1.918       .  S
O1100      C1110   1.280       .  A
O1101     Ni1107   1.917       .  S
O1101      C1111   1.280       .  A
O1102     Ni1107   1.918       .  S
O1102      C1112   1.280       .  A
O1103     Ni1108   1.918       .  S
O1103      C1112   1.280       .  A
O1104     Ni1108   1.917       .  S
O1104      C1111   1.280       .  A
O1105     Ni1108   1.918       .  S
O1105      C1110   1.280       .  A
O1106     Ni1108   1.918       .  S
O1106      C1109   1.280       .  A
Ni1107    Ni1108   2.394       .  S
C1109      C1381   1.435       .  S
C1110      C1377   1.435       .  S
C1111      C1361   1.435       .  S
C1112      C1368   1.435       .  S
O1114     Ni1121   1.917       .  S
O1115     Ni1121   1.918       .  S
O1115      C1125   1.280       .  A
O1116      C1126   1.280       .  A
O1117     Ni1122   1.918       .  S
O1119     Ni1122   1.917   1_545  S
C1123      C1397   1.435       .  S
C1124      C1352   1.435       .  S
C1125      C1360   1.435       .  S
C1126      C1356   1.435       .  S
O1127     Ni1135   1.917       .  S
O1127      C1137   1.280       .  A
O1128     Ni1135   1.917       .  S
O1128      C1138   1.280       .  A
O1129     Ni1135   1.918       .  S
O1129      C1139   1.280       .  A
O1130     Ni1135   1.918       .  S
O1130      C1140   1.280       .  A
O1131     Ni1136   1.918       .  S
O1132     Ni1136   1.918       .  S
O1133     Ni1136   1.918       .  S
O1134     Ni1136   1.918       .  S
C1137      C1348   1.435       .  S
C1138      C1389   1.435       .  S
C1139      C1357   1.435       .  S
C1140      C1353   1.435       .  S
O1141     Ni1149   1.918       .  S
O1141      C1151   1.280       .  A
O1142      C1152   1.280       .  A
O1143     Ni1149   1.917   1_545  S
O1143      C1153   1.280   1_545  A
O1144      C1154   1.280       .  A
O1146     Ni1150   1.917       .  S
O1147     Ni1150   1.918       .  S
O1147      C1152   1.280       .  A
O1148      C1151   1.280       .  A
C1151      C1340   1.435       .  S
C1152      C1341   1.435       .  S
C1154      C1333   1.435       .  S
O1155     Ni1163   1.918       .  S
O1155      C1165   1.280       .  A
O1156     Ni1163   1.918       .  S
O1156      C1166   1.280       .  A
O1157     Ni1163   1.917       .  S
O1157      C1167   1.280       .  A
O1158     Ni1163   1.918       .  S
O1158      C1168   1.280       .  A
O1159     Ni1164   1.918       .  S
O1159      C1168   1.280       .  A
O1160     Ni1164   1.918       .  S
O1160      C1167   1.280       .  A
O1161     Ni1164   1.918       .  S
O1161      C1166   1.280       .  A
O1162     Ni1164   1.918       .  S
O1162      C1165   1.280       .  A
Ni1163    Ni1164   2.394       .  S
C1165      C1344   1.435       .  S
C1166      C1337   1.435       .  S
C1167      C1329   1.435       .  S
C1168      C1365   1.435       .  S
O1169     Ni1177   1.918       .  S
O1171     Ni1177   1.917       .  S
O1171      C1181   1.280   1_565  A
O1172      C1182   1.280       .  A
O1174     Ni1178   1.917   1_455  S
O1175     Ni1178   1.918       .  S
O1175      C1180   1.280       .  A
O1176      C1179   1.280       .  A
C1179      C1325   1.435       .  S
C1180      C1324   1.435       .  S
C1181      C1393   1.435       .  S
O1183     Ni1191   1.918       .  S
O1183      C1193   1.280       .  A
O1184      C1194   1.280       .  A
O1185     Ni1191   1.917       .  S
O1185      C1195   1.280       .  A
O1187      C1196   1.280       .  A
O1188     Ni1192   1.917   1_455  S
O1189     Ni1192   1.918       .  S
O1189      C1194   1.280       .  A
O1190      C1193   1.280       .  A
C1193      C1316   1.435       .  S
C1194      C1312   1.435       .  S
C1195      C1305   1.435       .  S
C1196      C1388   1.435       .  S
O1197     Ni1205   1.918       .  S
O1197      C1207   1.280       .  A
O1198     Ni1205   1.918       .  S
O1198      C1208   1.280       .  A
O1199     Ni1205   1.917       .  S
O1199      C1209   1.280       .  A
O1200     Ni1205   1.917       .  S
O1200      C1210   1.280       .  A
O1201     Ni1206   1.917       .  S
O1202     Ni1206   1.917       .  S
O1203     Ni1206   1.918       .  S
O1204     Ni1206   1.918       .  S
C1207      C1321   1.435       .  S
C1208      C1328   1.435       .  S
C1209      C1301   1.435       .  S
C1210      C1372   1.435       .  S
O1211     Ni1219   1.917       .  S
O1211      C1221   1.280       .  A
O1212     Ni1219   1.917       .  S
O1212      C1222   1.280       .  A
O1213     Ni1219   1.918       .  S
O1213      C1223   1.280       .  A
O1214     Ni1219   1.918       .  S
O1214      C1224   1.280       .  A
O1215     Ni1220   1.918       .  S
O1215      C1224   1.280       .  A
O1216     Ni1220   1.918       .  S
O1216      C1223   1.280       .  A
O1217     Ni1220   1.917       .  S
O1217      C1222   1.280       .  A
O1218     Ni1220   1.917       .  S
O1218      C1221   1.280       .  A
Ni1219    Ni1220   2.394       .  S
C1221      C1297   1.435       .  S
C1222      C1364   1.435       .  S
C1223      C1313   1.435       .  S
C1224      C1309   1.435       .  S
O1226     Ni1233   1.918       .  S
O1228     Ni1233   1.917       .  S
O1230     Ni1234   1.917       .  S
O1230      C1237   1.280       .  A
O1231     Ni1234   1.918       .  S
O1231      C1236   1.280       .  A
O1232      C1235   1.280       .  A
C1235      C1292   1.435       .  S
C1236      C1296   1.435       .  S
C1237      C1317   1.435       .  S
C1238      C1349   1.435       .  S
O1239     Ni1247   1.917       .  S
O1239      C1249   1.280       .  A
O1241      C1251   1.280       .  A
O1242     Ni1247   1.918       .  S
O1242      C1252   1.280       .  A
O1243     Ni1248   1.918       .  S
O1243      C1252   1.280       .  A
O1244      C1251   1.280       .  A
O1245     Ni1248   1.918       .  S
O1245      C1250   1.280       .  A
Ni1247    Ni1248   2.394       .  S
C1249      C1308   1.435       .  S
C1250      C1345   1.435       .  S
C1251      C1284   1.435       .  S
C1252      C1285   1.435       .  S
O1253     Ni1261   1.918       .  S
O1254     Ni1261   1.918       .  S
O1255     Ni1261   1.917       .  S
O1256     Ni1261   1.917       .  S
O1257     Ni1262   1.918       .  S
O1257      C1266   1.280       .  A
O1258     Ni1262   1.917       .  S
O1258      C1265   1.280       .  A
O1259     Ni1262   1.918       .  S
O1259      C1264   1.280       .  A
O1260     Ni1262   1.918       .  S
O1260      C1263   1.280       .  A
C1263      C1293   1.435       .  S
C1264      C1289   1.435       .  S
C1265      C1304   1.435       .  S
C1266      C1336   1.435       .  S
O1267     Ni1275   1.918       .  S
O1267      C1277   1.280       .  A
O1268     Ni1275   1.918       .  S
O1268      C1278   1.280       .  A
O1269     Ni1275   1.917       .  S
O1269      C1279   1.280       .  A
O1270     Ni1275   1.917       .  S
O1270      C1280   1.280       .  A
O1271     Ni1276   1.917       .  S
O1271      C1280   1.280       .  A
O1272     Ni1276   1.917       .  S
O1272      C1279   1.280       .  A
O1273     Ni1276   1.918       .  S
O1273      C1278   1.280       .  A
O1274     Ni1276   1.918       .  S
O1274      C1277   1.280       .  A
Ni1275    Ni1276   2.394       .  S
C1277      C1288   1.435       .  S
C1278      C1281   1.435       .  S
C1279      C1300   1.435       .  S
C1280      C1332   1.435       .  S
C1281      C1282   1.205       .  T
C1282      C1283   1.412       .  S
C1283      C1284   1.205       .  T
C1285      C1286   1.206       .  T
C1286      C1287   1.412       .  S
C1287      C1288   1.206       .  T
C1289      C1290   1.205       .  T
C1290      C1291   1.412       .  S
C1291      C1292   1.205       .  T
C1293      C1294   1.206       .  T
C1294      C1295   1.412       .  S
C1295      C1296   1.206       .  T
C1297      C1298   1.205       .  T
C1298      C1299   1.411       .  S
C1299      C1300   1.205       .  T
C1301      C1302   1.205       .  T
C1303      C1304   1.205       .  T
C1305      C1306   1.205       .  T
C1306      C1307   1.412       .  S
C1307      C1308   1.205       .  T
C1309      C1310   1.206       .  T
C1310      C1311   1.412       .  S
C1311      C1312   1.206       .  T
C1313      C1314   1.206       .  T
C1314      C1315   1.412       .  S
C1315      C1316   1.206       .  T
C1318      C1319   1.412       .  S
C1321      C1322   1.206       .  T
C1322      C1323   1.412       .  S
C1323      C1324   1.206       .  T
C1325      C1326   1.206       .  T
C1329      C1330   1.205       .  T
C1330      C1331   1.412       .  S
C1331      C1332   1.205       .  T
C1334      C1335   1.412   1_545  S
C1335      C1336   1.205       .  T
C1337      C1338   1.206       .  T
C1338      C1339   1.412       .  S
C1339      C1340   1.206       .  T
C1341      C1342   1.205       .  T
C1342      C1343   1.412       .  S
C1343      C1344   1.205       .  T
C1345      C1346   1.205       .  T
C1346      C1347   1.412       .  S
C1347      C1348   1.205       .  T
C1349      C1350   1.205       .  T
C1350      C1351   1.412   1_565  S
C1351      C1352   1.205       .  T
C1353      C1354   1.206       .  T
C1357      C1358   1.206       .  T
C1358      C1359   1.412       .  S
C1359      C1360   1.206       .  T
C1361      C1362   1.205       .  T
C1362      C1363   1.412       .  S
C1363      C1364   1.205       .  T
C1365      C1366   1.205       .  T
C1366      C1367   1.412   1_556  S
C1367      C1368   1.205       .  T
C1369      C1370   1.205       .  T
C1375      C1376   1.205       .  T
C1377      C1378   1.206       .  T
C1378      C1379   1.412       .  S
C1379      C1380   1.206       .  T
C1381      C1382   1.205       .  T
C1382      C1383   1.412       .  S
C1383      C1384   1.205       .  T
C1385      C1386   1.205       .  T
C1386      C1387   1.412       .  S
C1387      C1388   1.205       .  T
C1389      C1390   1.205       .  T
C1390      C1391   1.412   1_556  S
C1391      C1392   1.205       .  T
C1398      C1399   1.411   1_556  S
C1401      C1402   1.206       .  T
C1402      C1403   1.412       .  S
C1403      C1404   1.206       .  T
C1405      C1406   1.205       .  T
