geometry optimzed in LAMMPS
_audit_creation_date              2020-11-30 
_audit_creation_method            'lammps2cif' 
_symmetry_space_group_name_H-M    'P1' 
_symmetry_Int_Tables_number       1 
_symmetry_cell_setting            triclinic 
loop_ 
_symmetry_equiv_pos_as_xyz 
  x,y,z 
_cell_length_a                    30.51340176 
_cell_length_b                    30.126418621875963 
_cell_length_c                    30.75028371906491 
_cell_angle_alpha                 90.70009632794557 
_cell_angle_beta                  90.62901419046582 
_cell_angle_gamma                 90.03443802229606 
loop_ 
_atom_site_label 
_atom_site_type_symbol 
_atom_site_fract_x 
_atom_site_fract_y 
_atom_site_fract_z 
_atom_site_charge 
O1          O  0.93685962  0.00775426  0.91282469    -0.75800
C2          C  0.03882972  0.90981054  0.92708758     0.85300
O3          O  0.92565846  0.95585882  0.06236744    -0.76900
O4          O  0.08923986  0.96811364  0.05506785    -0.78400
O5          O  0.05265600  0.09080450  0.95826954    -0.78200
O6          O  0.94446979  0.07765006  0.93507458    -0.76800
Zn7        Zn  0.96604543  0.97115368  0.95821843     1.55700
O8          O  0.10069178  0.03582937  0.96942554    -0.78200
Cd9        Cd  0.99417755  0.06763879  0.98097501     1.59700
Cd10       Cd  0.98026172  0.99809441  0.06021369     1.59600
O11         O  0.98166495  0.10665956  0.03437193    -0.78200
O12         O  0.00137528  0.00445051  0.99855995    -1.88700
Cd13       Cd  0.06366035  0.98317277  0.99338363     1.59900
O14         O  0.96368277  0.05994203  0.08701914    -0.78200
O15         O  0.06832262  0.92722589  0.95170081    -0.76800
C16         C  0.90462653  0.93969180  0.02971193     0.85700
C17         C  0.92789808  0.04870532  0.90930888     0.85400
O18         O  0.99960503  0.92401736  0.92689264    -0.75800
C19         C  0.09156198  0.07547635  0.95795648     0.86200
O20         O  0.91756413  0.94433214  0.99091007    -0.75900
C21         C  0.96957113  0.09919088  0.07300300     0.86300
C22         C  0.07268888  0.96852970  0.09310553     0.86600
O23         O  0.03224913  0.97711344  0.09950427    -0.78300
O24         O  0.07699765  0.25284513  0.17796887    -0.75800
C25         C  0.08472458  0.17091146  0.29215615     0.85300
O26         O  0.93088535  0.19255816  0.19543374    -0.76900
O27         O  0.95933244  0.21748650  0.34838947    -0.78400
O28         O  0.04659663  0.34464519  0.30192200    -0.78200
O29         O  0.06524206  0.32403313  0.19297045    -0.76800
Zn30       Zn  0.03833640  0.21790447  0.21716416     1.55700
O31         O  0.03958665  0.29048277  0.35040133    -0.78200
Cd32       Cd  0.02157233  0.31651371  0.24478081     1.59700
Cd33       Cd  0.93949459  0.24278117  0.24231949     1.59600
O34         O  0.96611122  0.35179150  0.23051057    -0.78200
O35         O  0.00351546  0.25345366  0.25495979    -1.88700
Cd36       Cd  0.01558899  0.23651251  0.31687559     1.59900
O37         O  0.91163570  0.30233174  0.22250034    -0.78200
O38         O  0.06212036  0.18731630  0.32277389    -0.76800
C39         C  0.96000163  0.17165858  0.17393026     0.85700
C40         C  0.08427267  0.29366767  0.17098765     0.85400
O41         O  0.07758537  0.18071429  0.25258870    -0.75800
C42         C  0.04963629  0.33006240  0.34066641     0.86200
O43         O  0.00073772  0.17903699  0.17956362    -0.75900
C44         C  0.92625316  0.34211429  0.22233463     0.86300
C45         C  0.91913354  0.21531594  0.33707925     0.86600
O46         O  0.90634513  0.22374837  0.29834824    -0.78300
O47         O  0.72709179  0.17797783  0.56296142    -0.75800
C48         C  0.64663642  0.27774650  0.56169102     0.85300
O49         O  0.66520765  0.19503737  0.41459639    -0.76900
O50         O  0.71042114  0.34708341  0.46302144    -0.78400
O51         O  0.83567171  0.28068063  0.52090552    -0.78200
O52         O  0.79861413  0.17678096  0.54910002    -0.76800
Zn53       Zn  0.69670926  0.20760330  0.51546373     1.55700
O54         O  0.78477367  0.33116548  0.53730339    -0.78200
Cd55       Cd  0.79811146  0.22568193  0.49946466     1.59700
Cd56       Cd  0.71749641  0.24079109  0.42475561     1.59600
O57         O  0.82526937  0.20722832  0.43970588    -0.78200
O58         O  0.73620495  0.24495728  0.48710990    -1.88700
Cd59       Cd  0.72704762  0.30505433  0.51245761     1.59900
O60         O  0.77264891  0.22165671  0.39017074    -0.78200
O61         O  0.67769479  0.30576120  0.55840103    -0.76800
C62         C  0.65473869  0.16333802  0.43975280     0.85700
C63         C  0.76571605  0.16561323  0.57216253     0.85400
O64         O  0.64694180  0.24081114  0.54146124    -0.75800
C65         C  0.82472246  0.31919234  0.53497691     0.86200
O66         O  0.67095654  0.16072271  0.47777300    -0.75900
C67         C  0.81187939  0.21056894  0.40018956     0.86300
C68         C  0.70214663  0.34229842  0.42260127     0.86600
O69         O  0.70121518  0.30428507  0.40360233    -0.78300
O70         O  0.75268438  0.06967909  0.66778813    -0.75800
C71         C  0.67167097  0.95205371  0.66698891     0.85300
O72         O  0.71300687  0.06987785  0.81292469    -0.76900
O73         O  0.72467240  0.90583236  0.79888986    -0.78400
O74         O  0.84689271  0.94628347  0.69879316    -0.78200
O75         O  0.82321788  0.05167112  0.66983412    -0.76800
Zn76       Zn  0.71926640  0.03140107  0.70913019     1.55700
O77         O  0.79851563  0.89447302  0.71784057    -0.78200
Cd78       Cd  0.82017942  0.00530866  0.71950269     1.59700
Cd79       Cd  0.75709778  0.01722581  0.80424928     1.59600
O80         O  0.86186721  0.02471356  0.76956170    -0.78200
O81         O  0.75929754  0.99566953  0.74230596    -1.88700
Cd82       Cd  0.74256215  0.93056077  0.73678938     1.59900
O83         O  0.81869483  0.03705292  0.82653630    -0.78200
O84         O  0.69309166  0.92238902  0.68786322    -0.76800
C85         C  0.68515369  0.08565401  0.78602552     0.85700
C86         C  0.79183961  0.07472587  0.65453877     0.85400
O87         O  0.67868926  0.99327512  0.67351129    -0.75800
C88         C  0.83609922  0.90584770  0.70350585     0.86200
O89         O  0.68294771  0.07199372  0.74672848    -0.75900
C90         C  0.85648223  0.03561226  0.80925383     0.86300
C91         C  0.72908067  0.92331401  0.83697557     0.86600
O92         O  0.74058398  0.96374681  0.84266984    -0.78300
O93         O  0.18156057  0.00149845  0.16928089    -0.75800
C94         C  0.18176928  0.09808201  0.26926159     0.85300
O95         O  0.33008815  0.06855188  0.18654507    -0.76900
O96         O  0.29707586  0.04993777  0.33949573    -0.78400
O97         O  0.22202772  0.91629116  0.29440438    -0.78200
O98         O  0.19756293  0.93159206  0.18540009    -0.76800
Zn99       Zn  0.22489323  0.03907733  0.20195899     1.55700
O100        O  0.21795720  0.97455587  0.33996815    -0.78200
Cd101      Cd  0.24451318  0.94265079  0.23561484     1.59700
Cd102      Cd  0.32066798  0.02281749  0.23530906     1.59600
O103        O  0.30304687  0.91090009  0.22005991    -0.78200
O104        O  0.25767968  0.00754481  0.24470765    -1.88700
Cd105      Cd  0.24184387  0.02751149  0.30516312     1.59900
O106        O  0.35350952  0.96506786  0.22173916    -0.78200
O107        O  0.19574493  0.07812084  0.30296538    -0.76800
C108        C  0.30245562  0.08163661  0.15830388     0.85700
C109        C  0.17516390  0.96008931  0.16419575     0.85400
O110        O  0.19214696  0.08631779  0.23106232    -0.75800
C111        C  0.21368200  0.93317440  0.33185885     0.86200
O112        O  0.26252433  0.06964945  0.15904757    -0.75900
C113        C  0.34264745  0.92443630  0.21731514     0.86300
C114        C  0.33696722  0.05592048  0.32884290     0.86600
O115        O  0.35020810  0.04881975  0.29036667    -0.78300
O116        O  0.07310135  0.49607076  0.58039678    -0.75800
C117        C  0.06041221  0.59426867  0.47929102     0.85300
O118        O  0.91826543  0.53448458  0.57582270    -0.76900
O119        O  0.94270017  0.53227298  0.41967693    -0.78400
O120        O  0.04269078  0.41220152  0.44986367    -0.78200
O121        O  0.07277383  0.42642664  0.55544224    -0.76800
Zn122      Zn  0.02712623  0.52915653  0.54746738     1.55700
O123        O  0.03106236  0.47047788  0.40691325    -0.78200
Cd124      Cd  0.02027217  0.43026776  0.51069109     1.59700
Cd125      Cd  0.93248251  0.49206310  0.52347586     1.59600
O126        O  0.97011303  0.38488442  0.52483695    -0.78200
O127        O  0.99607664  0.49221449  0.50707489    -1.88700
Cd128      Cd  0.00367050  0.51787797  0.44710573     1.59900
O129        O  0.91181498  0.42805165  0.53630390    -0.78200
O130        O  0.04385343  0.57415428  0.44636034    -0.76800
C131        C  0.94619419  0.55576285  0.59899769     0.85700
C132        C  0.08826976  0.45677287  0.58056831     0.85400
O133        O  0.05520480  0.58022161  0.51771201    -0.75800
C134        C  0.04367573  0.43070301  0.41274267     0.86200
O135        O  0.98684504  0.55454793  0.59057825    -0.75900
C136        C  0.92948814  0.38973479  0.53348881     0.86300
C137        C  0.90373815  0.52543236  0.43278330     0.86600
O138        O  0.89558929  0.51088878  0.47053265    -0.78300
O139        O  0.45252794  0.34423568  0.75646936    -0.75800
C140        C  0.43031562  0.23486472  0.84115258     0.85300
O141        O  0.59590541  0.30693995  0.81063790    -0.76900
O142        O  0.54339804  0.15553479  0.78794867    -0.78400
O143        O  0.46850996  0.20945767  0.66343416    -0.78200
O144        O  0.44489963  0.32028372  0.68821849    -0.76800
Zn145      Zn  0.48583882  0.29974532  0.79041294     1.55700
O146        O  0.46325583  0.16204546  0.71846747    -0.78200
Cd147      Cd  0.49145983  0.26803897  0.69265048     1.59700
Cd148      Cd  0.57655774  0.26033957  0.76299183     1.59600
O149        O  0.54674393  0.28563997  0.65824480    -0.78200
O150        O  0.51105659  0.25554702  0.75427418    -1.88700
Cd151      Cd  0.48972986  0.19522358  0.77199267     1.59900
O152        O  0.60316353  0.28046706  0.70519882    -0.78200
O153        O  0.44308365  0.19940403  0.82193212    -0.76800
C154        C  0.57078117  0.33224113  0.83248057     0.85700
C155        C  0.43672450  0.34852333  0.71838585     0.85400
O156        O  0.44497569  0.27273485  0.83125496    -0.75800
C157        C  0.45985662  0.17096454  0.67816268     0.86200
O158        O  0.52954852  0.33173431  0.82671700    -0.75900
C159        C  0.58760943  0.28832330  0.66744784     0.86300
C160        C  0.58489563  0.16081062  0.78644595     0.86600
O161        O  0.60241873  0.19825078  0.77809285    -0.78300
O162        O  0.83749635  0.76256974  0.94857271    -0.75800
C163        C  0.71362447  0.82988616  0.92047026     0.85300
O164        O  0.80953156  0.82354877  0.08316807    -0.76900
O165        O  0.65502868  0.78135266  0.05136707    -0.78400
O166        O  0.72163618  0.65651532  0.97245756    -0.78200
O167        O  0.82553373  0.69020270  0.95612247    -0.76800
Zn168      Zn  0.78860101  0.79502085  0.97687681     1.55700
O169        O  0.66458330  0.70302441  0.97277284    -0.78200
Cd170      Cd  0.77285929  0.69312825  0.99813509     1.59700
Cd171      Cd  0.76598279  0.77084026  0.07307306     1.59600
O172        O  0.79088371  0.66203250  0.05539997    -0.78200
O173        O  0.75368466  0.75584957  0.01025808    -1.88700
Cd174      Cd  0.68991902  0.76422444  0.99399901     1.59900
O175        O  0.79026519  0.71643088  0.10526705    -0.78200
O176        O  0.68355906  0.80939308  0.94109021    -0.76800
C177        C  0.82523112  0.84816118  0.05386491     0.85700
C178        C  0.84793035  0.72235927  0.94164138     0.85400
O179        O  0.75378943  0.82625910  0.93134348    -0.75800
C180        C  0.68113164  0.66454455  0.96618894     0.86200
O181        O  0.81717738  0.84063923  0.01383337    -0.75900
C182        C  0.79617170  0.67600726  0.09442633     0.86300
C183        C  0.66743592  0.78649122  0.09119164     0.86600
O184        O  0.70758656  0.78481776  0.10277177    -0.78300
O185        O  0.32675858  0.25503126  0.92645856    -0.75800
C186        C  0.21092645  0.34223169  0.92390982     0.85300
O187        O  0.32246527  0.30256693  0.06986768    -0.76900
O188        O  0.16434037  0.28873829  0.05534710    -0.78400
O189        O  0.19796525  0.16662272  0.95189611    -0.78200
O190        O  0.30484375  0.18483486  0.92515596    -0.76800
Zn191      Zn  0.28692045  0.29025999  0.96459690     1.55700
O192        O  0.15047811  0.22003163  0.97020438    -0.78200
Cd193      Cd  0.25739051  0.19087450  0.97303201     1.59700
Cd194      Cd  0.27321327  0.25461379  0.05923831     1.59600
O195        O  0.27485512  0.14879347  0.02206069    -0.78200
O196        O  0.25095177  0.25258748  0.99756652    -1.88700
Cd197      Cd  0.18817498  0.27361443  0.99282715     1.59900
O198        O  0.29495984  0.19229235  0.07813709    -0.78200
O199        O  0.18114979  0.32650488  0.94829715    -0.76800
C200        C  0.33711062  0.33002964  0.04231932     0.85700
C201        C  0.33074992  0.21516384  0.91282542     0.85400
O202        O  0.25053208  0.32943577  0.92754978    -0.75800
C203        C  0.15895997  0.18098292  0.95593209     0.86200
O204        O  0.32447527  0.32867979  0.00273702    -0.75900
C205        C  0.28950647  0.15402119  0.06061825     0.86300
C206        C  0.18060896  0.28090756  0.09305754     0.86600
O207        O  0.22005559  0.26792533  0.09855642    -0.78300
O208        O  0.74398924  0.42368695  0.32249871    -0.75800
C209        C  0.82308816  0.40968443  0.21385624     0.85300
O210        O  0.82218736  0.56756131  0.30360996    -0.76900
O211        O  0.78192355  0.53082001  0.15151738    -0.78400
O212        O  0.64928836  0.48015723  0.21273400    -0.78200
O213        O  0.67528184  0.44483783  0.30943214    -0.76800
Zn214      Zn  0.78290487  0.46306412  0.28798914     1.55700
O215        O  0.69743593  0.46362882  0.16096402    -0.78200
Cd216      Cd  0.68683433  0.49573550  0.26643078     1.59700
Cd217      Cd  0.77132788  0.56280339  0.25784625     1.59600
O218        O  0.66426837  0.55626706  0.28889382    -0.78200
O219        O  0.74984283  0.50037188  0.25027060    -1.88700
Cd220      Cd  0.75724686  0.47983635  0.18861157     1.59900
O221        O  0.71973059  0.60304579  0.27730807    -0.78200
O222        O  0.79847624  0.42550392  0.18423547    -0.76800
C223        C  0.83512753  0.53818814  0.33030284     0.85700
C224        C  0.70292753  0.41936867  0.32766303     0.85400
O225        O  0.82152728  0.42315628  0.25319600    -0.75800
C226        C  0.65819696  0.46747131  0.17429675     0.86200
O227        O  0.82069167  0.49855355  0.32866572    -0.75900
C228        C  0.68027118  0.59541544  0.28828745     0.86300
C229        C  0.79258044  0.57088090  0.16020428     0.86600
O230        O  0.79162127  0.58696526  0.19876846    -0.78300
O231        O  0.41023019  0.92791282  0.51351678    -0.75800
C232        C  0.40248965  0.04325657  0.43094637     0.85300
O233        O  0.54633572  0.92140077  0.44582626    -0.76900
O234        O  0.54464170  0.08216650  0.45759115    -0.78400
O235        O  0.45651819  0.05791338  0.59219669    -0.78200
O236        O  0.42776232  0.94527126  0.58183856    -0.76800
Zn237      Zn  0.44591239  0.96554877  0.47533783     1.55700
O238        O  0.47284530  0.10297687  0.53732607    -0.78200
Cd239      Cd  0.47474818  0.99515580  0.56888876     1.59700
Cd240      Cd  0.54985028  0.97294896  0.49413276     1.59600
O241        O  0.53193754  0.98082405  0.60210584    -0.78200
O242        O  0.48963598  0.99890746  0.50569626    -1.88700
Cd243      Cd  0.48530239  0.06181475  0.48422877     1.59900
O244        O  0.58099056  0.95575882  0.55409554    -0.78200
O245        O  0.43328724  0.07060620  0.43997264    -0.76800
C246        C  0.51182608  0.90917478  0.42476735     0.85700
C247        C  0.40553004  0.92255611  0.55402458     0.85400
O248        O  0.40326209  0.00361068  0.44422809    -0.75800
C249        C  0.46109163  0.09678173  0.57649622     0.86200
O250        O  0.47437858  0.92520507  0.43339590    -0.75900
C251        C  0.56977391  0.96556041  0.59316718     0.86300
C252        C  0.58227510  0.06360557  0.45663996     0.86600
O253        O  0.58838932  0.02382939  0.46934580    -0.78300
O254        O  0.00550069  0.64455021  0.70186237    -0.75800
C255        C  0.07557017  0.76529175  0.67279722     0.85300
O256        O  0.06097387  0.68225031  0.83811827    -0.76900
O257        O  0.02061087  0.83569249  0.78903766    -0.78400
O258        O  0.89687505  0.76037753  0.72461318    -0.78200
O259        O  0.93354994  0.65437867  0.70617972    -0.76800
Zn260      Zn  0.03651255  0.69423015  0.73086779     1.55700
O261        O  0.94307591  0.81695370  0.71472637    -0.78200
Cd262      Cd  0.93572660  0.70951342  0.74807985     1.59700
Cd263      Cd  0.01213285  0.72936774  0.82384505     1.59600
O264        O  0.90701307  0.69155781  0.80577266    -0.78200
O265        O  0.99701514  0.73235020  0.75994619    -1.88700
Cd266      Cd  0.00427576  0.79420071  0.73642473     1.59900
O267        O  0.95638541  0.71137381  0.85665148    -0.78200
O268        O  0.05245651  0.79782932  0.68665588    -0.76800
C269        C  0.08455657  0.66140429  0.81069562     0.85700
C270        C  0.96659765  0.63217634  0.69342022     0.85400
O271        O  0.07085057  0.72653695  0.68771698    -0.75800
C272        C  0.90438589  0.80044215  0.71412357     0.86200
O273        O  0.07877779  0.66565573  0.77011267    -0.75900
C274        C  0.91852109  0.69702803  0.84539335     0.86300
C275        C  0.02884834  0.83058192  0.82953797     0.86600
O276        O  0.02947990  0.79240447  0.84722772    -0.78300
O277        O  0.41994504  0.81756026  0.24999422    -0.75800
C278        C  0.40566688  0.70471924  0.33196837     0.85300
O279        O  0.56369928  0.80650256  0.30816525    -0.76900
O280        O  0.53515984  0.65066441  0.29681939    -0.78400
O281        O  0.45499519  0.68362189  0.16253497    -0.78200
O282        O  0.41930820  0.78904959  0.18279349    -0.76800
Zn283      Zn  0.45634542  0.77789005  0.28668719     1.55700
O284        O  0.46483151  0.63649939  0.21710956    -0.78200
Cd285      Cd  0.47137697  0.74488451  0.18923425     1.59700
Cd286      Cd  0.55423605  0.75622700  0.25959891     1.59600
O287        O  0.52350058  0.76629820  0.15220387    -0.78200
O288        O  0.49058308  0.73913112  0.25151028    -1.88700
Cd289      Cd  0.47847026  0.67690245  0.27040078     1.59900
O290        O  0.57987844  0.77403049  0.19882528    -0.78200
O291        O  0.42569960  0.67293823  0.31305646    -0.76800
C292        C  0.53399773  0.82460775  0.33141272     0.85700
C293        C  0.40595997  0.81722133  0.21087838     0.85400
O294        O  0.41536417  0.74504756  0.32503496    -0.75800
C295        C  0.45649278  0.64426228  0.17727962     0.86200
O296        O  0.49385028  0.81505808  0.32506233    -0.75900
C297        C  0.56368768  0.77509494  0.16016909     0.86300
C298        C  0.57533664  0.66200471  0.29441371     0.86600
O299        O  0.58739146  0.69973510  0.28011229    -0.78300
O300        O  0.16591038  0.75523109  0.57251943    -0.75800
C301        C  0.15121494  0.67614328  0.45354436     0.85300
O302        O  0.30065183  0.69527306  0.56073088    -0.76900
O303        O  0.29060957  0.71512141  0.41136455    -0.78400
O304        O  0.19871983  0.84628614  0.44184018    -0.78200
O305        O  0.16236114  0.82492946  0.55032345    -0.76800
Zn306      Zn  0.19819581  0.72113917  0.52821500     1.55700
O307        O  0.21316196  0.78994520  0.39591074    -0.78200
Cd308      Cd  0.21333566  0.82021939  0.50343540     1.59700
Cd309      Cd  0.29568188  0.75042001  0.51909148     1.59600
O310        O  0.26635718  0.85751912  0.52584840    -0.78200
O311        O  0.23456147  0.75769700  0.49545913    -1.88700
Cd312      Cd  0.22906977  0.73562182  0.43357873     1.59900
O313        O  0.31977567  0.81064011  0.54527274    -0.78200
O314        O  0.17969471  0.68657837  0.42527052    -0.76800
C315        C  0.27082048  0.66649114  0.56784192     0.85700
C316        C  0.15094702  0.79443705  0.57657878     0.85400
O317        O  0.15380326  0.69125801  0.49214056    -0.75800
C318        C  0.20302937  0.83041762  0.40323636     0.86200
O319        O  0.23153312  0.67231343  0.55542399    -0.75900
C320        C  0.30469716  0.85002271  0.54108612     0.86300
C321        C  0.32881113  0.72261558  0.42740948     0.86600
O322        O  0.33481549  0.73709179  0.46615400    -0.78300
O323        O  0.33721388  0.43587696  0.73742523    -0.75800
C324        C  0.34988487  0.54902714  0.81994643     0.85300
O325        O  0.20023746  0.44546252  0.81834633    -0.76900
O326        O  0.22465424  0.60599443  0.77952564    -0.78400
O327        O  0.28240276  0.55030226  0.64870418    -0.78200
O328        O  0.31276086  0.44170805  0.66968762    -0.76800
Zn329      Zn  0.30119567  0.47221455  0.77651557     1.55700
O330        O  0.29657145  0.60082723  0.70089506    -0.78200
Cd331      Cd  0.26528069  0.49218043  0.68213830     1.59700
Cd332      Cd  0.20026290  0.49664482  0.77119435     1.59600
O333        O  0.20313397  0.47248984  0.65983028    -0.78200
O334        O  0.26043281  0.50773391  0.74624160    -1.88700
Cd335      Cd  0.27758179  0.57114168  0.75737406     1.59900
O336        O  0.16020517  0.47917637  0.71841308    -0.78200
O337        O  0.32728815  0.57964057  0.80282795    -0.76800
C338        C  0.23362560  0.42279854  0.83014377     0.85700
C339        C  0.33937351  0.42514818  0.69749769     0.85400
O340        O  0.34221323  0.50833964  0.81173634    -0.75800
C341        C  0.29421960  0.58937756  0.66100656     0.86200
O342        O  0.27144673  0.43075284  0.81543793    -0.75900
C343        C  0.16554315  0.47121005  0.67786487     0.86300
C344        C  0.18735794  0.59607056  0.79466967     0.86600
O345        O  0.17398676  0.55590807  0.79705305    -0.78300
O346        O  0.51590082  0.40643768  0.94086160    -0.75800
C347        C  0.41707422  0.42403067  0.02424768     0.85300
O348        O  0.44596240  0.55656923  0.92381659    -0.76900
O349        O  0.47278497  0.53909821  0.08503332    -0.78400
O350        O  0.60316418  0.47280712  0.03141732    -0.78200
O351        O  0.58065010  0.43824802  0.93101058    -0.76800
Zn352      Zn  0.47834043  0.45756593  0.95655822     1.55700
O353        O  0.55217738  0.46227705  0.08238964    -0.78200
Cd354      Cd  0.57062580  0.49061046  0.97570547     1.59700
Cd355      Cd  0.48685436  0.55821445  0.97802015     1.59600
O356        O  0.59662192  0.55158494  0.95740467    -0.78200
O357        O  0.50805745  0.49791155  0.99212109    -1.88700
Cd358      Cd  0.49385115  0.48181615  0.05305698     1.59900
O359        O  0.53977762  0.59786797  0.96413590    -0.78200
O360        O  0.44251780  0.43451411  0.05604796    -0.76800
C361        C  0.44263848  0.52493960  0.89605119     0.85700
C362        C  0.55484713  0.40505958  0.92687634     0.85400
O363        O  0.42584210  0.43461520  0.98551909    -0.75800
C364        C  0.59205597  0.46282321  0.06988220     0.86200
O365        O  0.45850603  0.48668826  0.90285506    -0.75900
C366        C  0.58022621  0.59066712  0.95720533     0.86300
C367        C  0.45913828  0.57683169  0.07198504     0.86600
O368        O  0.45833869  0.58722198  0.03191435    -0.78300
C369        C  0.38527978  0.55958575  0.85102770    -0.13700
C370        C  0.41749776  0.52984552  0.85584825    -0.28900
H371        H  0.38184204  0.58762282  0.87327152     0.15300
H372        H  0.42012030  0.50251612  0.83253126     0.15900
C373        C  0.27975782  0.62504695  0.59132331    -0.13700
C374        C  0.30231962  0.62448249  0.62884562    -0.28900
H375        H  0.25917025  0.59671541  0.58277145     0.15300
H376        H  0.31923736  0.65441827  0.63981944     0.15900
C377        C  0.45228687  0.60605064  0.14699266    -0.13700
C378        C  0.44721495  0.61158205  0.10393381    -0.28900
H379        H  0.45958142  0.57331291  0.15963495     0.15300
H380        H  0.44000395  0.64438602  0.09139722     0.15900
C381        C  0.36974738  0.69576349  0.36238082    -0.13700
C382        C  0.36790456  0.71896371  0.39985773    -0.28900
H383        H  0.34369890  0.67295462  0.35284215     0.15300
H384        H  0.39592085  0.73928827  0.40954915     0.15900
C385        C  0.11853832  0.80257871  0.61204776    -0.13700
C386        C  0.10975588  0.76889200  0.63927286    -0.28900
H387        H  0.10091350  0.83379146  0.61430733     0.15300
H388        H  0.12847907  0.73839416  0.63572859     0.15900
C389        C  0.11910633  0.63020093  0.82416635    -0.13700
C390        C  0.15811890  0.63362332  0.80479739    -0.28900
H391        H  0.10994498  0.60024808  0.84112575     0.15300
H392        H  0.16621821  0.66479872  0.78924031     0.15900
C393        C  0.54467833  0.85754509  0.36686715    -0.13700
C394        C  0.51123422  0.87467306  0.39014284    -0.28900
H395        H  0.57825478  0.86789126  0.37318741     0.15300
H396        H  0.47814888  0.86370318  0.38209698     0.15900
C397        C  0.37345278  0.88847528  0.56711999    -0.13700
C398        C  0.33317412  0.88925331  0.54880454    -0.28900
H399        H  0.38492928  0.85957679  0.58463637     0.15300
H400        H  0.32278096  0.91951804  0.53272456     0.15900
C401        C  0.62136968  0.45974206  0.14405300    -0.13700
C402        C  0.62765194  0.45494628  0.10123681    -0.28900
H403        H  0.58843330  0.46419939  0.15649397     0.15300
H404        H  0.66072624  0.45238895  0.08865618     0.15900
C405        C  0.65119489  0.63369684  0.29640560    -0.13700
C406        C  0.60843951  0.62802612  0.30482551    -0.28900
H407        H  0.66348341  0.66644423  0.28846175     0.15300
H408        H  0.59633027  0.59519516  0.31275288     0.15900
C409        C  0.20093761  0.37657544  0.89059167    -0.13700
C410        C  0.23187838  0.38562887  0.86095294    -0.28900
H411        H  0.17053589  0.39523638  0.89163680     0.15300
H412        H  0.26154525  0.36563898  0.86097599     0.15900
C413        C  0.37604807  0.39902455  0.02943207    -0.13700
C414        C  0.37102272  0.36337577  0.05480995    -0.28900
H415        H  0.35158029  0.40499386  0.00417501     0.15300
H416        H  0.39473918  0.35589202  0.08026137     0.15900
C417        C  0.65270045  0.62654307  0.95417179    -0.13700
C418        C  0.60886613  0.62983168  0.95268112    -0.28900
H419        H  0.66794540  0.59397247  0.95257326     0.15300
H420        H  0.59359101  0.66235079  0.95495771     0.15900
C421        C  0.59235831  0.78357595  0.12233040    -0.13700
C422        C  0.63547193  0.79148861  0.12696142    -0.28900
H423        H  0.57855905  0.77834647  0.08994372     0.15300
H424        H  0.64901845  0.79608277  0.15955075     0.15900
C425        C  0.80571680  0.64449537  0.12952457    -0.13700
C426        C  0.80219726  0.60037753  0.12356495    -0.28900
H427        H  0.80826784  0.65817987  0.16232754     0.15300
H428        H  0.79881525  0.58663039  0.09085759     0.15900
C429        C  0.88705641  0.71431148  0.91575206    -0.13700
C430        C  0.88538205  0.69003655  0.87901340    -0.28900
H431        H  0.91471159  0.73637739  0.92186062     0.15300
H432        H  0.85571080  0.67178684  0.87044164     0.15900
C433        C  0.58791834  0.36336740  0.86586932    -0.13700
C434        C  0.56731634  0.36386982  0.90416877    -0.28900
H435        H  0.60677341  0.39184339  0.85548271     0.15300
H436        H  0.54756508  0.33502139  0.91214611     0.15900
C437        C  0.45586539  0.13653615  0.60480484    -0.13700
C438        C  0.44932319  0.13377726  0.64787646    -0.28900
H439        H  0.46345284  0.16853710  0.59077634     0.15300
H440        H  0.44272737  0.10161718  0.66204686     0.15900
C441        C  0.36628368  0.20483319  0.88181626    -0.13700
C442        C  0.39798714  0.23505145  0.87612597    -0.28900
H443        H  0.36537367  0.17431911  0.86265415     0.15300
H444        H  0.39782081  0.26523738  0.89589406     0.15900
C445        C  0.40850959  0.38789066  0.71232255    -0.13700
C446        C  0.37339244  0.39173936  0.68549973    -0.28900
H447        H  0.41319217  0.41324828  0.73746166     0.15300
H448        H  0.36719954  0.36780926  0.65947742     0.15900
C449        C  0.12572009  0.46486675  0.65073608    -0.13700
C450        C  0.12562070  0.44771114  0.61013155    -0.28900
H451        H  0.09554917  0.47899593  0.66333247     0.15300
H452        H  0.15438487  0.43104448  0.59739016     0.15900
C453        C  0.86633353  0.52991575  0.40263961    -0.13700
C454        C  0.86872267  0.54892994  0.36351112    -0.28900
H455        H  0.83648968  0.51245360  0.41123576     0.15300
H456        H  0.89698166  0.56867539  0.35468015     0.15900
C457        C  0.08619179  0.63521406  0.47525066    -0.13700
C458        C  0.11583399  0.64332480  0.44401032    -0.28900
H459        H  0.08572263  0.65638052  0.50412771     0.15300
H460        H  0.11769768  0.62216759  0.41524746     0.15900
C461        C  0.93278739  0.58421781  0.63593154    -0.13700
C462        C  0.96245335  0.59109284  0.66783035    -0.28900
H463        H  0.90350834  0.60451571  0.63325513     0.15300
H464        H  0.99121576  0.56974490  0.66902489     0.15900
C465        C  0.36477189  0.05566329  0.40365271    -0.13700
C466        C  0.37037195  0.06740474  0.36223904    -0.28900
H467        H  0.33309286  0.04287947  0.41342546     0.15300
H468        H  0.40308710  0.07579496  0.35130062     0.15900
C469        C  0.31533962  0.11420686  0.12566645    -0.13700
C470        C  0.29526001  0.11395644  0.08673983    -0.28900
H471        H  0.33598372  0.14191156  0.13584960     0.15300
H472        H  0.27660502  0.08480876  0.07646375     0.15900
C473        C  0.20156964  0.90428321  0.36858732    -0.13700
C474        C  0.20006505  0.85979460  0.36497618    -0.28900
H475        H  0.19913489  0.91980426  0.40056119     0.15300
H476        H  0.20345924  0.84432279  0.33307952     0.15900
C477        C  0.37838623  0.89221883  0.21327603    -0.13700
C478        C  0.37279641  0.85034576  0.19919753    -0.28900
H479        H  0.41012230  0.90225984  0.22657446     0.15300
H480        H  0.34244199  0.83972284  0.18349339     0.15900
C481        C  0.86608280  0.82931325  0.70519780    -0.13700
C482        C  0.87073352  0.87240859  0.69564695    -0.28900
H483        H  0.83381029  0.81646057  0.71278845     0.15300
H484        H  0.90309572  0.88497743  0.68792441     0.15900
C485        C  0.65599022  0.12245946  0.79917835    -0.13700
C486        C  0.61291234  0.12088360  0.78965725    -0.28900
H487        H  0.67073627  0.15278814  0.81200248     0.15300
H488        H  0.59850349  0.08949023  0.77908845     0.15900
C489        C  0.63808069  0.93986517  0.63340667    -0.13700
C490        C  0.60178076  0.96506995  0.62984955    -0.28900
H491        H  0.64422560  0.91289775  0.61054918     0.15300
H492        H  0.59563772  0.98945493  0.65545660     0.15900
C493        C  0.70332930  0.85841298  0.88235541    -0.13700
C494        C  0.72653131  0.89607933  0.87690556    -0.28900
H495        H  0.67950774  0.84741894  0.85805215     0.15300
H496        H  0.74754125  0.90728930  0.90366821     0.15900
C497        C  0.62023475  0.13062418  0.42779999    -0.13700
C498        C  0.62151487  0.08990725  0.44554632    -0.28900
H499        H  0.59054801  0.14249961  0.41201126     0.15300
H500        H  0.65238750  0.07824856  0.45922598     0.15900
C501        C  0.85816465  0.35338691  0.54602749    -0.13700
C502        C  0.90110145  0.34970126  0.53668607    -0.28900
H503        H  0.84562484  0.38541485  0.55675535     0.15300
H504        H  0.91419991  0.31796857  0.52586340     0.15900
C505        C  0.69818048  0.38306619  0.39704948    -0.13700
C506        C  0.68792745  0.38281352  0.35469179    -0.28900
H507        H  0.71000156  0.41370078  0.41218875     0.15300
H508        H  0.67577939  0.35288149  0.33862101     0.15900
C509        C  0.61895570  0.29804979  0.63291430    -0.13700
C510        C  0.61051067  0.28570212  0.59169852    -0.28900
H511        H  0.65212755  0.30747488  0.64248579     0.15300
H512        H  0.57873966  0.27158294  0.58308398     0.15900
C513        C  0.76892122  0.13760229  0.61093552    -0.13700
C514        C  0.80008941  0.10759749  0.61990725    -0.28900
H515        H  0.74006928  0.13871187  0.63140078     0.15300
H516        H  0.82956010  0.10543725  0.60052172     0.15900
C517        C  0.12056786  0.13991007  0.30160618    -0.13700
C518        C  0.15225230  0.13576583  0.27212269    -0.28900
H519        H  0.11938317  0.11880473  0.32995782     0.15300
H520        H  0.15246478  0.15760630  0.24418823     0.15900
C521        C  0.89598653  0.37937219  0.21673562    -0.13700
C522        C  0.85440162  0.37450077  0.20339181    -0.28900
H523        H  0.90702448  0.41168239  0.22871474     0.15300
H524        H  0.84257348  0.34337107  0.18946480     0.15900
C525        C  0.11506413  0.30489341  0.13587560    -0.13700
C526        C  0.15253985  0.28181223  0.13196420    -0.28900
H527        H  0.10587111  0.32962105  0.11206145     0.15300
H528        H  0.16203477  0.25959401  0.15804829     0.15900
C529        C  0.06109379  0.36010318  0.37699398    -0.13700
C530        C  0.05543992  0.40410024  0.37411899    -0.28900
H531        H  0.06472613  0.34509750  0.40880644     0.15300
H532        H  0.05063524  0.41913134  0.34246826     0.15900
C533        C  0.88694386  0.20538075  0.37131501    -0.13700
C534        C  0.84338935  0.20556639  0.36414768    -0.28900
H535        H  0.89947284  0.20289367  0.40441693     0.15300
H536        H  0.83081808  0.20888943  0.33114477     0.15900
C537        C  0.85585557  0.88479107  0.06486960    -0.13700
C538        C  0.86362102  0.91501109  0.03418500    -0.28900
H539        H  0.87629190  0.88294418  0.09392851     0.15300
H540        H  0.84248485  0.91557498  0.00546172     0.15900
C541        C  0.12789966  0.10583039  0.94777114    -0.13700
C542        C  0.12208610  0.15024785  0.94774994    -0.28900
H543        H  0.16083308  0.09211718  0.94786646     0.15300
H544        H  0.08922832  0.16397302  0.94970614     0.15900
C545        C  0.04901930  0.87175366  0.89805351    -0.13700
C546        C  0.03316839  0.87107037  0.85698100    -0.28900
H547        H  0.06595652  0.84315613  0.91127222     0.15300
H548        H  0.01865541  0.90119662  0.84406345     0.15900
C549        C  0.10169510  0.96440464  0.13185993    -0.13700
C550        C  0.14199223  0.94620704  0.13123703    -0.28900
H551        H  0.09144509  0.98207060  0.16107333     0.15300
H552        H  0.15257656  0.92670234  0.10334938     0.15900
C553        C  0.89529728  0.06134234  0.87608063    -0.13700
C554        C  0.89589906  0.04151210  0.83677891    -0.28900
H555        H  0.86751553  0.08147279  0.88592966     0.15300
H556        H  0.92507328  0.02344443  0.82691137     0.15900
C557        C  0.94749578  0.13748101  0.14151706    -0.13700
C558        C  0.96709711  0.13770682  0.10271397    -0.28900
H559        H  0.92623390  0.11035003  0.15077435     0.15300
H560        H  0.98615461  0.16669549  0.09381525     0.15900
loop_ 
_geom_bond_atom_site_label_1 
_geom_bond_atom_site_label_2 
_geom_bond_distance 
_geom_bond_site_symmetry_2 
_ccdc_geom_bond_type 
O1           C17   1.269       .  A
O1           Zn7   1.992   1_545  S
C2           O18   1.271   1_455  A
C2           O15   1.278       .  A
C2          C545   1.480       .  S
O3           C16   1.277       .  A
O3          Cd10   2.098       .  S
O4           C22   1.279       .  A
O4          Cd13   2.098   1_554  S
O5           C19   1.274       .  A
O5           Cd9   2.048   1_455  S
O6           C17   1.272       .  A
O6           Cd9   2.085       .  S
Zn7          O18   1.996       .  S
Zn7          O20   1.976       .  S
Zn7          O12   1.910   1_665  S
O8           C19   1.280       .  A
O8          Cd13   2.093   1_545  S
Cd9          O11   2.047   1_556  S
Cd9          O12   1.997   1_655  S
Cd10         O14   2.093   1_565  S
Cd10         O23   2.086   1_655  S
Cd10         O12   2.020   1_664  S
O11          C21   1.270       .  A
O12         Cd13   2.013   1_545  S
Cd13         O15   2.111       .  S
O14          C21   1.277       .  A
C16          O20   1.270   1_554  A
C16         C538   1.464       .  S
C17         C553   1.472       .  S
C19         C541   1.476       .  S
C21         C558   1.471       .  S
C22          O23   1.278       .  A
C22         C549   1.483       .  S
O24          C40   1.271       .  A
O24         Zn30   2.003       .  S
C25          O41   1.272       .  A
C25          O38   1.269       .  A
C25         C517   1.468       .  S
O26          C39   1.275       .  A
O26         Cd33   2.092       .  S
O27          C45   1.273       .  A
O27         Cd36   2.065   1_655  S
O28          C42   1.277       .  A
O28         Cd32   2.079       .  S
O29          C40   1.275       .  A
O29         Cd32   2.102       .  S
Zn30         O41   1.970       .  S
Zn30         O43   1.990       .  S
Zn30         O35   1.904       .  S
O31          C42   1.271       .  A
O31         Cd36   2.045       .  S
Cd32         O34   2.045   1_455  S
Cd32         O35   2.007       .  S
Cd33         O37   2.081       .  S
Cd33         O46   2.093       .  S
Cd33         O35   2.012   1_655  S
O34          C44   1.272       .  A
O35         Cd36   2.007       .  S
Cd36         O38   2.061       .  S
O37          C44   1.279       .  A
C39          O43   1.272   1_655  A
C39         C557   1.472       .  S
C40         C525   1.481       .  S
C42         C529   1.468       .  S
C44         C521   1.465       .  S
C45          O46   1.278       .  A
C45         C533   1.481       .  S
O47          C63   1.266       .  A
O47         Zn53   1.947       .  S
C48          O64   1.268       .  A
C48          O61   1.274       .  A
C48         C510   1.463       .  S
O49          C62   1.279       .  A
O49         Cd56   2.126       .  S
O50          C68   1.272       .  A
O50         Cd59   2.050       .  S
O51          C65   1.279       .  A
O51         Cd55   2.109       .  S
O52          C63   1.283       .  A
O52         Cd55   2.134       .  S
Zn53         O64   1.989       .  S
Zn53         O66   1.973       .  S
Zn53         O58   1.877       .  S
O54          C65   1.274       .  A
O54         Cd59   2.064       .  S
Cd55         O57   2.093       .  S
Cd55         O58   2.010       .  S
Cd56         O60   2.079       .  S
Cd56         O69   2.086       .  S
Cd56         O58   1.997       .  S
O57          C67   1.283       .  A
O58         Cd59   1.984       .  S
Cd59         O61   2.076       .  S
O60          C67   1.278       .  A
C62          O66   1.268       .  A
C62         C497   1.482       .  S
C63         C513   1.472       .  S
C65         C501   1.483       .  S
C67         C534   1.482       .  S
C68          O69   1.279       .  A
C68         C505   1.470       .  S
O70          C86   1.276       .  A
O70         Zn76   2.012       .  S
C71          O87   1.273       .  A
C71          O84   1.282       .  A
C71         C489   1.490       .  S
O72          C85   1.276       .  A
O72         Cd79   2.097       .  S
O73          C91   1.284       .  A
O73         Cd82   2.135       .  S
O74          C88   1.272       .  A
O74         Cd78   2.054   1_565  S
O75          C86   1.272       .  A
O75         Cd78   2.085       .  S
Zn76         O87   1.997   1_545  S
Zn76         O89   2.014       .  S
Zn76         O81   1.922   1_545  S
O77          C88   1.281       .  A
O77         Cd82   2.108       .  S
Cd78         O80   2.065       .  S
Cd78         O81   2.015   1_545  S
Cd79         O83   2.078       .  S
Cd79         O92   2.075   1_545  S
Cd79         O81   2.007   1_545  S
O80          C90   1.272       .  A
O81         Cd82   2.031       .  S
Cd82         O84   2.132       .  S
O83          C90   1.275       .  A
C85          O89   1.273       .  A
C85         C485   1.478       .  S
C86         C514   1.486       .  S
C88         C482   1.480       .  S
C90         C554   1.473       .  S
C91          O92   1.277       .  A
C91         C494   1.488       .  S
O93         C109   1.270   1_545  A
O93         Zn99   1.995       .  S
C94         O110   1.266       .  A
C94         O107   1.274       .  A
C94         C518   1.452       .  S
O95         C108   1.270       .  A
O95        Cd102   2.071       .  S
O96         C114   1.277       .  A
O96        Cd105   2.086       .  S
O97         C111   1.282       .  A
O97        Cd101   2.105       .  S
O98         C109   1.278       .  A
O98        Cd101   2.118       .  S
Zn99        O110   1.953       .  S
Zn99        O112   1.992       .  S
Zn99        O104   1.906       .  S
O100        C111   1.275       .  A
O100       Cd105   2.069   1_565  S
Cd101       O103   2.084       .  S
Cd101       O104   2.011   1_565  S
Cd102       O106   2.049   1_545  S
Cd102       O115   2.056       .  S
Cd102       O104   2.001       .  S
O103        C113   1.279       .  A
O104       Cd105   2.011       .  S
Cd105       O107   2.076       .  S
O106        C113   1.273       .  A
C108        O112   1.271       .  A
C108        C469   1.469       .  S
C109        C550   1.481       .  S
C111        C473   1.484       .  S
C113        C477   1.466       .  S
C114        O115   1.270       .  A
C114        C466   1.477       .  S
O116        C132   1.271       .  A
O116       Zn122   1.996       .  S
C117        O133   1.271       .  A
C117        O130   1.273       .  A
C117        C457   1.470       .  S
O118        C131   1.273       .  A
O118       Cd125   2.092       .  S
O119        C137   1.277       .  A
O119       Cd128   2.082   1_655  S
O120        C134   1.277       .  A
O120       Cd124   2.066       .  S
O121        C132   1.277       .  A
O121       Cd124   2.105       .  S
Zn122       O133   1.997       .  S
Zn122       O135   1.966   1_455  S
Zn122       O127   1.902   1_455  S
O123        C134   1.273       .  A
O123       Cd128   2.061       .  S
Cd124       O126   2.104   1_455  S
Cd124       O127   2.011   1_455  S
Cd125       O129   2.072       .  S
Cd125       O138   2.055       .  S
Cd125       O127   2.010       .  S
O126        C136   1.279       .  A
O127       Cd128   2.024   1_655  S
Cd128       O130   2.092       .  S
O129        C136   1.277       .  A
C131        O135   1.270       .  A
C131        C461   1.476       .  S
C132        C450   1.478       .  S
C134        C530   1.472       .  S
C136        C502   1.489       .  S
C137        O138   1.273       .  A
C137        C453   1.470       .  S
O139        C155   1.270       .  A
O139       Zn145   1.983       .  S
C140        O156   1.267       .  A
C140        O153   1.278       .  A
C140        C442   1.467       .  S
O141        C154   1.273       .  A
O141       Cd148   2.097       .  S
O142        C160   1.277       .  A
O142       Cd151   2.086       .  S
O143        C157   1.279       .  A
O143       Cd147   2.088       .  S
O144        C155   1.278       .  A
O144       Cd147   2.126       .  S
Zn145       O156   1.963       .  S
Zn145       O158   1.973       .  S
Zn145       O150   1.893       .  S
O146        C157   1.275       .  A
O146       Cd151   2.071       .  S
Cd147       O149   2.073       .  S
Cd147       O150   2.021       .  S
Cd148       O152   2.060       .  S
Cd148       O161   2.086       .  S
Cd148       O150   2.018       .  S
O149        C159   1.278       .  A
O150       Cd151   2.013       .  S
Cd151       O153   2.108       .  S
O152        C159   1.274       .  A
C154        O158   1.269       .  A
C154        C433   1.473       .  S
C155        C445   1.478       .  S
C157        C438   1.481       .  S
C159        C509   1.469       .  S
C160        O161   1.278       .  A
C160        C486   1.480       .  S
O162        C178   1.269       .  A
O162       Zn168   1.987       .  S
C163        O179   1.272       .  A
C163        O176   1.283       .  A
C163        C493   1.493       .  S
O164        C177   1.271       .  A
O164       Cd171   2.088       .  S
O165        C183   1.285       .  A
O165       Cd174   2.129   1_554  S
O166        C180   1.273       .  A
O166       Cd170   2.057       .  S
O167        C178   1.273       .  A
O167       Cd170   2.074       .  S
Zn168       O179   1.994       .  S
Zn168       O181   1.970   1_556  S
Zn168       O173   1.906   1_556  S
O169        C180   1.279       .  A
O169       Cd174   2.093       .  S
Cd170       O172   2.074   1_556  S
Cd170       O173   2.010   1_556  S
Cd171       O175   2.059       .  S
Cd171       O184   2.053       .  S
Cd171       O173   2.010       .  S
O172        C182   1.275       .  A
O173       Cd174   2.020   1_554  S
Cd174       O176   2.141       .  S
O175        C182   1.272       .  A
C177        O181   1.270       .  A
C177        C537   1.479       .  S
C178        C429   1.461       .  S
C180        C417   1.477       .  S
C182        C425   1.473       .  S
C183        O184   1.273       .  A
C183        C422   1.484       .  S
O185        C201   1.274       .  A
O185       Zn191   1.995       .  S
C186        O202   1.273       .  A
C186        O199   1.279       .  A
C186        C409   1.494       .  S
O187        C200   1.275       .  A
O187       Cd194   2.104       .  S
O188        C206   1.281       .  A
O188       Cd197   2.108   1_554  S
O189        C203   1.273       .  A
O189       Cd193   2.051       .  S
O190        C201   1.272       .  A
O190       Cd193   2.083       .  S
Zn191       O202   1.982       .  S
Zn191       O204   1.991   1_556  S
Zn191       O196   1.890       .  S
O192        C203   1.278       .  A
O192       Cd197   2.089       .  S
Cd193       O195   2.048   1_556  S
Cd193       O196   2.008       .  S
Cd194       O198   2.079       .  S
Cd194       O207   2.070       .  S
Cd194       O196   2.008   1_554  S
O195        C205   1.270       .  A
O196       Cd197   2.022       .  S
Cd197       O199   2.123       .  S
O198        C205   1.277       .  A
C200        O204   1.273       .  A
C200        C414   1.486       .  S
C201        C441   1.482       .  S
C203        C542   1.474       .  S
C205        C470   1.468       .  S
C206        O207   1.276       .  A
C206        C526   1.479       .  S
O208        C224   1.271       .  A
O208       Zn214   2.000       .  S
C209        O225   1.273       .  A
C209        O222   1.272       .  A
C209        C522   1.463       .  S
O210        C223   1.274       .  A
O210       Cd217   2.087       .  S
O211        C229   1.274       .  A
O211       Cd220   2.071       .  S
O212        C226   1.270       .  A
O212       Cd216   2.049       .  S
O213        C224   1.271       .  A
O213       Cd216   2.070       .  S
Zn214       O225   1.994       .  S
Zn214       O227   1.993       .  S
Zn214       O219   1.906       .  S
O215        C226   1.275       .  A
O215       Cd220   2.061       .  S
Cd216       O218   2.063       .  S
Cd216       O219   1.996       .  S
Cd217       O221   2.077       .  S
Cd217       O230   2.066       .  S
Cd217       O219   2.002       .  S
O218        C228   1.277       .  A
O219       Cd220   2.002       .  S
Cd220       O222   2.069       .  S
O221        C228   1.276       .  A
C223        O227   1.273       .  A
C223        C454   1.472       .  S
C224        C506   1.464       .  S
C226        C401   1.467       .  S
C228        C405   1.476       .  S
C229        O230   1.276       .  A
C229        C426   1.475       .  S
O231        C247   1.268       .  A
O231       Zn237   1.977       .  S
C232        O248   1.267       .  A
C232        O245   1.275       .  A
C232        C465   1.468       .  S
O233        C246   1.282       .  A
O233       Cd240   2.138       .  S
O234        C252   1.278       .  A
O234       Cd243   2.090       .  S
O235        C249   1.280       .  A
O235       Cd239   2.092   1_545  S
O236        C247   1.278       .  A
O236       Cd239   2.121       .  S
Zn237       O248   1.981   1_565  S
Zn237       O250   1.970       .  S
Zn237       O242   1.900       .  S
O238        C249   1.276       .  A
O238       Cd243   2.077       .  S
Cd239       O241   2.061       .  S
Cd239       O242   2.005       .  S
Cd240       O244   2.135       .  S
Cd240       O253   2.088   1_565  S
Cd240       O242   2.031       .  S
O241        C251   1.275       .  A
O242       Cd243   2.018   1_565  S
Cd243       O245   2.098       .  S
O244        C251   1.284       .  A
C246        O250   1.270       .  A
C246        C394   1.479       .  S
C247        C397   1.481       .  S
C249        C437   1.482       .  S
C251        C490   1.484       .  S
C252        O253   1.278       .  A
C252        C498   1.481       .  S
O254        C270   1.267   1_455  A
O254       Zn260   1.969       .  S
C255        O271   1.268       .  A
C255        O268   1.279       .  A
C255        C386   1.479       .  S
O256        C269   1.274       .  A
O256       Cd263   2.105       .  S
O257        C275   1.279       .  A
O257       Cd266   2.088       .  S
O258        C272   1.274       .  A
O258       Cd262   2.070       .  S
O259        C270   1.273       .  A
O259       Cd262   2.090       .  S
Zn260       O271   1.966       .  S
Zn260       O273   1.963       .  S
Zn260       O265   1.890   1_455  S
O261        C272   1.281       .  A
O261       Cd266   2.095   1_655  S
Cd262       O264   2.065       .  S
Cd262       O265   2.020       .  S
Cd263       O267   2.063   1_455  S
Cd263       O276   2.088       .  S
Cd263       O265   2.016   1_455  S
O264        C274   1.273       .  A
O265       Cd266   2.020   1_655  S
Cd266       O268   2.137       .  S
O267        C274   1.276       .  A
C269        O273   1.266       .  A
C269        C389   1.472       .  S
C270        C462   1.463       .  S
C272        C481   1.483       .  S
C274        C430   1.471       .  S
C275        O276   1.278       .  A
C275        C546   1.480       .  S
O277        C293   1.272       .  A
O277       Zn283   1.985       .  S
C278        O294   1.271       .  A
C278        O291   1.274       .  A
C278        C381   1.475       .  S
O279        C292   1.279       .  A
O279       Cd286   2.131       .  S
O280        C298   1.276       .  A
O280       Cd289   2.065       .  S
O281        C295   1.275       .  A
O281       Cd285   2.070       .  S
O282        C293   1.274       .  A
O282       Cd285   2.082       .  S
Zn283       O294   1.998       .  S
Zn283       O296   1.973       .  S
Zn283       O288   1.903       .  S
O284        C295   1.273       .  A
O284       Cd289   2.068       .  S
Cd285       O287   2.073       .  S
Cd285       O288   2.006       .  S
Cd286       O290   2.109       .  S
Cd286       O299   2.081       .  S
Cd286       O288   2.021       .  S
O287        C297   1.275       .  A
O288       Cd289   2.005       .  S
Cd289       O291   2.092       .  S
O290        C297   1.283       .  A
C292        O296   1.271       .  A
C292        C393   1.498       .  S
C293        C478   1.467       .  S
C295        C377   1.477       .  S
C297        C421   1.488       .  S
C298        O299   1.279       .  A
C298        C406   1.474       .  S
O300        C316   1.272       .  A
O300       Zn306   1.969       .  S
C301        O317   1.268       .  A
C301        O314   1.278       .  A
C301        C458   1.488       .  S
O302        C315   1.279       .  A
O302       Cd309   2.114       .  S
O303        C321   1.280       .  A
O303       Cd312   2.096       .  S
O304        C318   1.282       .  A
O304       Cd308   2.103       .  S
O305        C316   1.281       .  A
O305       Cd308   2.136       .  S
Zn306       O317   1.954       .  S
Zn306       O319   1.978       .  S
Zn306       O311   1.873       .  S
O307        C318   1.276       .  A
O307       Cd312   2.071       .  S
Cd308       O310   2.076       .  S
Cd308       O311   2.005       .  S
Cd309       O313   2.105       .  S
Cd309       O322   2.065       .  S
Cd309       O311   2.007       .  S
O310        C320   1.277       .  A
O311       Cd312   2.013       .  S
Cd312       O314   2.121       .  S
O313        C320   1.280       .  A
C315        O319   1.267       .  A
C315        C373   1.474       .  S
C316        C385   1.498       .  S
C318        C474   1.483       .  S
C320        C398   1.482       .  S
C321        O322   1.275       .  A
C321        C382   1.474       .  S
O323        C339   1.268       .  A
O323       Zn329   1.962       .  S
C324        O340   1.270       .  A
C324        O337   1.268       .  A
C324        C369   1.466       .  S
O325        C338   1.278       .  A
O325       Cd332   2.129       .  S
O326        C344   1.271       .  A
O326       Cd335   2.045       .  S
O327        C341   1.282       .  A
O327       Cd331   2.110       .  S
O328        C339   1.279       .  A
O328       Cd331   2.135       .  S
Zn329       O340   1.966       .  S
Zn329       O342   1.969       .  S
Zn329       O334   1.887       .  S
O330        C341   1.271       .  A
O330       Cd335   2.052       .  S
Cd331       O333   2.093       .  S
Cd331       O334   2.028       .  S
Cd332       O336   2.083       .  S
Cd332       O345   2.108       .  S
Cd332       O334   2.027       .  S
O333        C343   1.280       .  A
O334       Cd335   2.005       .  S
Cd335       O337   2.065       .  S
O336        C343   1.279       .  A
C338        O342   1.268       .  A
C338        C410   1.477       .  S
C339        C446   1.492       .  S
C341        C374   1.479       .  S
C343        C449   1.477       .  S
C344        O345   1.280       .  A
C344        C390   1.474       .  S
O346        C362   1.269       .  A
O346       Zn352   1.979       .  S
C347        O363   1.268   1_554  A
C347        O360   1.278       .  A
C347        C413   1.472       .  S
O348        C361   1.275       .  A
O348       Cd355   2.071       .  S
O349        C367   1.279       .  A
O349       Cd358   2.081       .  S
O350        C364   1.273       .  A
O350       Cd354   2.048   1_554  S
O351        C362   1.277       .  A
O351       Cd354   2.104       .  S
Zn352       O363   1.970       .  S
Zn352       O365   1.969       .  S
Zn352       O357   1.855       .  S
O353        C364   1.280       .  A
O353       Cd358   2.075       .  S
Cd354       O356   2.087       .  S
Cd354       O357   1.992       .  S
Cd355       O359   2.060       .  S
Cd355       O368   2.065   1_556  S
Cd355       O357   1.980       .  S
O356        C366   1.280       .  A
O357       Cd358   1.993   1_556  S
Cd358       O360   2.120       .  S
O359        C366   1.273       .  A
C361        O365   1.269       .  A
C361        C370   1.457       .  S
C362        C434   1.469       .  S
C364        C402   1.466       .  S
C366        C418   1.477       .  S
C367        O368   1.275       .  A
C367        C378   1.475       .  S
C369        C370   1.339       .  D
C369        H371   1.086       .  S
C370        H372   1.089       .  S
C373        C374   1.337       .  D
C373        H375   1.087       .  S
C374        H376   1.087       .  S
C377        C378   1.344       .  D
C377        H379   1.087       .  S
C378        H380   1.087       .  S
C381        C382   1.342       .  D
C381        H383   1.086       .  S
C382        H384   1.088       .  S
C385        C386   1.352       .  D
C385        H387   1.085       .  S
C386        H388   1.087       .  S
C389        C390   1.341       .  D
C389        H391   1.086       .  S
C390        H392   1.089       .  S
C393        C394   1.352       .  D
C393        H395   1.086       .  S
C394        H396   1.087       .  S
C397        C398   1.347       .  D
C397        H399   1.086       .  S
C398        H400   1.088       .  S
C401        C402   1.339       .  D
C401        H403   1.087       .  S
C402        H404   1.087       .  S
C405        C406   1.344       .  D
C405        H407   1.087       .  S
C406        H408   1.087       .  S
C409        C410   1.349       .  D
C409        H411   1.086       .  S
C410        H412   1.088       .  S
C413        C414   1.345       .  D
C413        H415   1.088       .  S
C414        H416   1.086       .  S
C417        C418   1.342       .  D
C417        H419   1.087       .  S
C418        H420   1.087       .  S
C421        C422   1.343       .  D
C421        H423   1.087       .  S
C422        H424   1.087       .  S
C425        C426   1.344       .  D
C425        H427   1.087       .  S
C426        H428   1.087       .  S
C429        C430   1.339       .  D
C429        H431   1.087       .  S
C430        H432   1.087       .  S
C433        C434   1.341       .  D
C433        H435   1.086       .  S
C434        H436   1.089       .  S
C437        C438   1.345       .  D
C437        H439   1.087       .  S
C438        H440   1.087       .  S
C441        C442   1.342       .  D
C441        H443   1.086       .  S
C442        H444   1.088       .  S
C445        C446   1.351       .  D
C445        H447   1.088       .  S
C446        H448   1.085       .  S
C449        C450   1.345       .  D
C449        H451   1.088       .  S
C450        H452   1.086       .  S
C453        C454   1.342       .  D
C453        H455   1.088       .  S
C454        H456   1.086       .  S
C457        C458   1.351       .  D
C457        H459   1.087       .  S
C458        H460   1.086       .  S
C461        C462   1.342       .  D
C461        H463   1.086       .  S
C462        H464   1.089       .  S
C465        C466   1.339       .  D
C465        H467   1.087       .  S
C466        H468   1.088       .  S
C469        C470   1.339       .  D
C469        H471   1.086       .  S
C470        H472   1.088       .  S
C473        C474   1.344       .  D
C473        H475   1.087       .  S
C474        H476   1.087       .  S
C477        C478   1.339       .  D
C477        H479   1.088       .  S
C478        H480   1.086       .  S
C481        C482   1.342       .  D
C481        H483   1.087       .  S
C482        H484   1.087       .  S
C485        C486   1.344       .  D
C485        H487   1.086       .  S
C486        H488   1.087       .  S
C489        C490   1.348       .  D
C489        H491   1.086       .  S
C490        H492   1.088       .  S
C493        C494   1.350       .  D
C493        H495   1.085       .  S
C494        H496   1.088       .  S
C497        C498   1.349       .  D
C497        H499   1.086       .  S
C498        H500   1.088       .  S
C501        C502   1.349       .  D
C501        H503   1.087       .  S
C502        H504   1.086       .  S
C505        C506   1.336       .  D
C505        H507   1.088       .  S
C506        H508   1.086       .  S
C509        C510   1.339       .  D
C509        H511   1.088       .  S
C510        H512   1.087       .  S
C513        C514   1.341       .  D
C513        H515   1.088       .  S
C514        H516   1.086       .  S
C517        C518   1.337       .  D
C517        H519   1.086       .  S
C518        H520   1.088       .  S
C521        C522   1.337       .  D
C521        H523   1.088       .  S
C522        H524   1.086       .  S
C525        C526   1.344       .  D
C525        H527   1.086       .  S
C526        H528   1.088       .  S
C529        C530   1.341       .  D
C529        H531   1.087       .  S
C530        H532   1.087       .  S
C533        C534   1.345       .  D
C533        H535   1.087       .  S
C534        H536   1.087       .  S
C537        C538   1.342       .  D
C537        H539   1.086       .  S
C538        H540   1.088       .  S
C541        C542   1.350       .  D
C541        H543   1.087       .  S
C542        H544   1.087       .  S
C545        C546   1.347       .  D
C545        H547   1.086       .  S
C546        H548   1.088       .  S
C549        C550   1.347       .  D
C549        H551   1.088       .  S
C550        H552   1.086       .  S
C553        C554   1.342       .  D
C553        H555   1.086       .  S
C554        H556   1.088       .  S
C557        C558   1.341       .  D
C557        H559   1.086       .  S
C558        H560   1.088       .  S
