geometry optimzed in LAMMPS
_audit_creation_date              2020-11-30 
_audit_creation_method            'lammps2cif' 
_symmetry_space_group_name_H-M    'P1' 
_symmetry_Int_Tables_number       1 
_symmetry_cell_setting            triclinic 
loop_ 
_symmetry_equiv_pos_as_xyz 
  x,y,z 
_cell_length_a                    25.48630208 
_cell_length_b                    25.47740436513417 
_cell_length_c                    26.411342973027917 
_cell_angle_alpha                 89.52304386394633 
_cell_angle_beta                  89.70428879353487 
_cell_angle_gamma                 89.05036402354276 
loop_ 
_atom_site_label 
_atom_site_type_symbol 
_atom_site_fract_x 
_atom_site_fract_y 
_atom_site_fract_z 
_atom_site_charge 
C1          C  0.86468442  0.86856318  0.86306848    -0.02400
C2          C  0.97468073  0.97608149  0.48260529     0.42600
N3          N  0.95637952  0.92652839  0.42309982     0.01500
C4          C  0.75904649  0.93580618  0.25753792    -0.06400
H5          H  0.69441980  0.91242904  0.45327173     0.07000
C6          C  0.80068659  0.73247448  0.43500807    -0.06800
Co7        Co  0.86553207  0.96798203  0.36710125     0.74200
N8          N  0.76775206  0.92542485  0.41354195    -0.25900
Co9        Co  0.77395842  0.86944693  0.35406799     0.74100
C10         C  0.74929791  0.74749700  0.45373981     0.42700
N11         N  0.93103827  0.77402083  0.41272527     0.01100
N12         N  0.77432048  0.80738568  0.40435084     0.01200
N13         N  0.81609423  0.00133674  0.27068498    -0.46800
H14         H  0.90382368  0.03095056  0.46835420     0.06900
N15         N  0.80326519  0.96216942  0.41815560     0.01500
N16         N  0.77901394  0.81301043  0.29541527     0.01200
C17         C  0.75782442  0.75658002  0.23792148     0.42800
N18         N  0.96491744  0.81230591  0.41663225    -0.25400
C19         C  0.94064461  0.01539146  0.28474154    -0.06300
N20         N  0.99187248  0.93377258  0.45780906    -0.46500
N21         N  0.74208275  0.80124320  0.26187791    -0.46700
C22         C  0.99194652  0.00099115  0.26289455     0.42600
N23         N  0.81451990  0.96816188  0.30896613     0.01500
N24         N  0.96758402  0.82558767  0.30665245    -0.25400
N25         N  0.91832591  0.96214607  0.42379680    -0.25900
N26         N  0.93282591  0.78845226  0.30144564     0.01100
H27         H  0.03067216  0.85346295  0.25970312     0.07000
H28         H  0.82984847  0.70463715  0.25674130     0.07000
N29         N  0.78100032  0.92997325  0.30269245    -0.26000
N30         N  0.81291829  0.77197822  0.40421083    -0.25600
N31         N  0.96648758  0.94016909  0.31494086     0.01500
C32         C  0.74665600  0.98135799  0.47659076     0.42900
C33         C  0.99796919  0.80099148  0.45503103    -0.06800
N34         N  0.81744126  0.77766618  0.29632989    -0.25600
H35         H  0.82329753  0.69659422  0.44059160     0.07000
N36         N  0.79174588  0.99650743  0.45427837    -0.46800
H37         H  0.03101313  0.82435763  0.46599443     0.07000
C38         C  0.97859312  0.78644480  0.23414130     0.42700
C39         C  0.92603234  0.99517583  0.46125530    -0.06300
Co40       Co  0.96501772  0.87575413  0.36544546     0.73800
N41         N  0.94040834  0.73550744  0.44623394    -0.46500
C42         C  0.78306165  0.98253817  0.23648118     0.43000
N43         N  0.00524595  0.95381940  0.28381353    -0.46500
Co44       Co  0.87423982  0.77680796  0.35386597     0.73900
C45         C  0.80743395  0.74063845  0.26172659    -0.06800
C46         C  0.73004360  0.93449475  0.44882681    -0.06400
N47         N  0.92836122  0.97561023  0.31626918    -0.25900
N48         N  0.73492474  0.79412798  0.43391335    -0.46700
H49         H  0.73017493  0.91035724  0.24130303     0.07000
C50         C  0.99857805  0.82697072  0.26616323    -0.06800
Cl51       Cl  0.86946601  0.87230385  0.36042374    -0.49800
C52         C  0.98143679  0.75026546  0.47540769     0.42700
H53         H  0.91719043  0.05072148  0.27939885     0.06900
N54         N  0.93816250  0.76371723  0.25825405    -0.46500
C55         C  0.74875661  0.46917158  0.98908846     0.42600
N56         N  0.77171020  0.41249182  0.93180085     0.01500
C57         C  0.01343190  0.27998514  0.92883919    -0.06400
H58         H  0.02991598  0.47051528  0.90749947     0.07000
C59         C  0.93198391  0.46029888  0.73141583    -0.06800
Co60       Co  0.87459230  0.36125630  0.95726658     0.74200
N61         N  0.95993872  0.42577901  0.91669082    -0.25900
Co62       Co  0.96509784  0.37180508  0.86104600     0.74100
C63         C  0.98121570  0.48564527  0.74481371     0.42700
N64         N  0.80558462  0.42327172  0.78271964     0.01100
N65         N  0.95949260  0.42938698  0.80330188     0.01200
N66         N  0.95062623  0.27388920  0.98889420    -0.46800
H67         H  0.82457071  0.45339115  0.03383638     0.06900
N68         N  0.92505316  0.42164540  0.95356700     0.01500
N69         N  0.96313861  0.31565995  0.80783084     0.01200
C70         C  0.97617869  0.24248077  0.77349953     0.42800
N71         N  0.77022826  0.41875634  0.81920946    -0.25400
C72         C  0.82617134  0.25906184  0.98562597    -0.06300
N73         N  0.73348026  0.44615663  0.94527521    -0.46500
N74         N  0.99549883  0.27516498  0.80748556    -0.46700
C75         C  0.78266784  0.22903719  0.96892454     0.42600
N76         N  0.93786902  0.30927131  0.95374412     0.01500
N77         N  0.77366845  0.30443630  0.80986271    -0.25400
N78         N  0.81094547  0.41251888  0.96402648    -0.25900
N79         N  0.80769860  0.30892966  0.77237412     0.01100
H80         H  0.70456642  0.25707924  0.81918001     0.07000
H81         H  0.90390040  0.25224774  0.72213093     0.07000
N82         N  0.97368273  0.31383976  0.91804083    -0.26000
N83         N  0.92178119  0.42642481  0.76954668    -0.25600
N84         N  0.78667904  0.29762918  0.92286597     0.01500
C85         C  0.97660171  0.47889601  0.97741152     0.42900
C86         C  0.73855805  0.46085008  0.81840867    -0.06800
N87         N  0.92448940  0.31225059  0.77500642    -0.25600
H88         H  0.90958667  0.46404474  0.69686434     0.07000
N89         N  0.93397089  0.45288342  0.99155619    -0.46800
H90         H  0.70613195  0.46854689  0.84400369     0.07000
C91         C  0.75433701  0.24938808  0.74629404     0.42700
C92         C  0.80001723  0.44644797  0.00137738    -0.06300
Co93       Co  0.77366352  0.35792488  0.87096783     0.73800
N94         N  0.80010860  0.46729266  0.75678840    -0.46500
C95         C  0.99756096  0.25283541  0.97571258     0.43000
N96         N  0.75931550  0.25482968  0.92995174    -0.46500
Co97       Co  0.86473343  0.36780855  0.77335408     0.73900
C98         C  0.92976890  0.26687516  0.75090186    -0.06800
C99         C  0.99413767  0.46220157  0.92806676    -0.06400
N100        N  0.82527011  0.30075764  0.95554864    -0.25900
N101        N  0.99594966  0.46383329  0.78980999    -0.46700
H102        H  0.04966820  0.27612861  0.90761878     0.07000
C103        C  0.73891820  0.26730091  0.79726110    -0.06800
Cl104      Cl  0.86938017  0.36494261  0.86550707    -0.49800
C105        C  0.75927589  0.49326724  0.77787763     0.42700
H106        H  0.85217564  0.25237447  0.01733811     0.06900
N107        N  0.79709490  0.27769826  0.73357737    -0.46500
C108        C  0.47537974  0.97968954  0.98267683     0.42600
N109        N  0.42632277  0.95714078  0.92403556     0.01500
C110        C  0.25595433  0.75752413  0.92476176    -0.06400
H111        H  0.45585649  0.69256601  0.91368316     0.07000
C112        C  0.46713556  0.80658520  0.75125693    -0.06800
Co113      Co  0.36566293  0.86654546  0.95864051     0.74200
N114        N  0.41598405  0.76739091  0.92300632    -0.25900
Co115      Co  0.36027956  0.77351147  0.86429858     0.74100
C116        C  0.48997482  0.75830802  0.77166326     0.42700
N117        N  0.42568051  0.93141660  0.77507453     0.01100
N118        N  0.41944584  0.77471548  0.81134532     0.01200
N119        N  0.26638755  0.81772235  0.98620481    -0.46800
H120        H  0.45620702  0.90858755  0.03244570     0.06900
N121        N  0.41901454  0.80376439  0.95795481     0.01500
N122        N  0.30591878  0.77718212  0.80421083     0.01200
C123        C  0.25273341  0.75446034  0.74428269     0.42800
N124        N  0.42619479  0.96623783  0.81165151    -0.25400
C125        C  0.27498016  0.94088540  0.99623846    -0.06300
N126        N  0.45683177  0.99523535  0.93770139    -0.46500
N127        N  0.27355133  0.73959508  0.78962128    -0.46700
C128        C  0.25373344  0.99209359  0.98092550     0.42600
N129        N  0.30607425  0.81634321  0.95454415     0.01500
N130        N  0.31351475  0.96644839  0.81771746    -0.25400
N131        N  0.42389717  0.91916256  0.95820315    -0.25900
N132        N  0.31094869  0.93147317  0.78138792     0.01100
H133        H  0.26269135  0.02945557  0.84223467     0.07000
H134        H  0.27454276  0.82737904  0.69688366     0.07000
N135        N  0.30166151  0.78136767  0.91839894    -0.26000
N136        N  0.42331763  0.81353936  0.77807296    -0.25600
N137        N  0.31395887  0.96759461  0.92808886     0.01500
C138        C  0.47571799  0.74476155  0.98187277     0.42900
C139        C  0.46009566  0.00421674  0.79910611    -0.06800
N140        N  0.30933877  0.81534183  0.77040729    -0.25600
H141        H  0.48045806  0.83136912  0.72049275     0.07000
N142        N  0.45366434  0.79175574  0.99379167    -0.46800
H143        H  0.46588773  0.03945753  0.82072736     0.07000
C144        C  0.24107702  0.97722125  0.77602075     0.42700
C145        C  0.45510621  0.92937756  0.99657618    -0.06300
Co146      Co  0.37052566  0.96526143  0.87011796     0.73800
N147        N  0.45749913  0.94431517  0.73690266    -0.46500
C148        C  0.23293721  0.78242952  0.96953832     0.43000
N149        N  0.28095435  0.00688050  0.93916411    -0.46500
Co150      Co  0.36746130  0.87309473  0.77470448     0.73900
C151        C  0.27688583  0.80493409  0.73174315    -0.06800
C152        C  0.45048536  0.72852792  0.93467727    -0.06400
N153        N  0.31187289  0.92904609  0.96139993    -0.25900
N154        N  0.45805019  0.73997809  0.80795573    -0.46700
H155        H  0.24128089  0.72603936  0.90184500     0.07000
C156        C  0.27128140  0.99724450  0.81697514    -0.06800
Cl157      Cl  0.36625363  0.86951831  0.86674467    -0.49800
C158        C  0.48102541  0.99000234  0.74905982     0.42700
H159        H  0.26630532  0.91798922  0.02982702     0.06900
N160        N  0.26776956  0.93690737  0.75475011    -0.46500
C161        C  0.36737053  0.36941115  0.87139167    -0.02400
C162        C  0.37051903  0.87115187  0.36692691    -0.02400
C163        C  0.87119666  0.36990565  0.36436426    -0.02400
C164        C  0.00004257  0.99297213  0.72451565     0.42600
N165        N  0.02381308  0.05259159  0.67074208     0.01500
C166        C  0.25998735  0.05276821  0.53612659    -0.06400
H167        H  0.26411709  0.08348493  0.73774727     0.07000
C168        C  0.18237391  0.25415182  0.71391159    -0.06800
Co169      Co  0.12382759  0.02339588  0.61789107     0.74200
N170        N  0.20947197  0.06398376  0.67942794    -0.25900
Co171      Co  0.21467977  0.12224259  0.62583920     0.74100
C172        C  0.23326193  0.23987093  0.73652119     0.42700
N173        N  0.05662025  0.20490632  0.67874142     0.01100
N174        N  0.21085049  0.18115795  0.68169481     0.01200
N175        N  0.19936822  0.98936865  0.53324292    -0.46800
H176        H  0.07464703  0.94334575  0.70762921     0.06900
N177        N  0.17580253  0.02566441  0.67489744     0.01500
N178        N  0.21202891  0.18100694  0.57298066     0.01200
C179        C  0.23495450  0.23666634  0.51901233     0.42800
N180        N  0.02223504  0.16714455  0.67558449    -0.25400
C181        C  0.05936348  0.99061044  0.52839039    -0.06300
N182        N  0.98536386  0.03900316  0.70219948    -0.46500
N183        N  0.25022908  0.19175248  0.54126546    -0.46700
C184        C  0.00927833  0.00781863  0.50890334     0.42600
N185        N  0.18584667  0.02653143  0.56610660     0.01500
N186        N  0.02074076  0.17787201  0.56685490    -0.25400
N187        N  0.06244804  0.01774598  0.67002517    -0.25900
N188        N  0.05519327  0.21585932  0.56782444     0.01100
H189        H  0.94900056  0.16729956  0.52554287     0.07000
H190        H  0.16184161  0.28915705  0.53145360     0.07000
N191        N  0.22091611  0.06381701  0.56926296    -0.26000
N192        N  0.17209235  0.21603610  0.68060494    -0.25600
N193        N  0.03118766  0.06249102  0.56258887     0.01500
C194        C  0.21105626  0.01151482  0.74545666     0.42900
C195        C  0.99114817  0.16759549  0.71586515    -0.06800
N196        N  0.17353178  0.21652473  0.57237370    -0.25600
H197        H  0.15932115  0.28986015  0.71787793     0.07000
N198        N  0.17624414  0.99259120  0.71318142    -0.46800
H199        H  0.95893109  0.14150334  0.72330187     0.07000
C200        C  0.99775292  0.24160093  0.51189194     0.42700
C201        C  0.05127673  0.97879105  0.70271435    -0.06300
Co202      Co  0.02357908  0.11527435  0.61870633     0.73800
N203        N  0.05075210  0.23221193  0.72035983    -0.46500
C204        C  0.24574331  0.00299526  0.51213820     0.43000
N205        N  0.99348656  0.05219987  0.53098215    -0.46500
Co206      Co  0.11390903  0.21461869  0.62464170     0.73900
C207        C  0.18448980  0.25358383  0.53853481    -0.06800
C208        C  0.23390262  0.05835849  0.72337983    -0.06400
N209        N  0.06938865  0.02686877  0.56236899    -0.25900
N210        N  0.24853551  0.19435166  0.71381399    -0.46700
H211        H  0.29570660  0.07475134  0.53203467     0.07000
C212        C  0.98337238  0.19032186  0.53282578    -0.06800
Cl213      Cl  0.11916198  0.11907315  0.62132773    -0.49800
C214        C  0.01046755  0.21018146  0.74533894     0.42700
H215        H  0.08079591  0.95399400  0.52335653     0.06900
N216        N  0.04284956  0.25482537  0.53570235    -0.46500
C217        C  0.98786067  0.73181502  0.00158778     0.42600
N218        N  0.04732483  0.67589381  0.02483103     0.01500
C219        C  0.05423248  0.53107378  0.24921308    -0.06400
H220        H  0.08534877  0.74512032  0.25442871     0.07000
C221        C  0.25114925  0.72238524  0.17937053    -0.06800
Co222      Co  0.02041956  0.62070453  0.12106092     0.74200
N223        N  0.06239973  0.68364253  0.20426403    -0.25900
Co224      Co  0.12136622  0.62760094  0.20809671     0.74100
C225        C  0.23684996  0.74390078  0.22908971     0.42700
N226        N  0.19885410  0.68858719  0.05467161     0.01100
N227        N  0.17921458  0.68684745  0.20562001     0.01200
N228        N  0.99038203  0.52970613  0.19068463    -0.46800
H229        H  0.93753739  0.71455996  0.07227291     0.06900
N230        N  0.02347033  0.67983738  0.17188085     0.01500
N231        N  0.18073654  0.57208110  0.20179555     0.01200
C232        C  0.22975922  0.50505286  0.21182843     0.42800
N233        N  0.16070491  0.68297038  0.02182670    -0.25400
C234        C  0.98974157  0.52588069  0.05957990    -0.06300
N235        N  0.03377812  0.70882775  0.98775607    -0.46500
N236        N  0.18804701  0.53087350  0.23137125    -0.46700
C237        C  0.00825004  0.50462430  0.01219194     0.42600
N238        N  0.02583668  0.56579352  0.17965845     0.01500
N239        N  0.17433992  0.56975352  0.02168499    -0.25400
N240        N  0.01253923  0.67494657  0.06180010    -0.25900
N241        N  0.21399829  0.57401344  0.05306366     0.01100
H242        H  0.16160018  0.52059832  0.95664218     0.07000
H243        H  0.28248969  0.52620260  0.14436478     0.07000
N244        N  0.06365617  0.56807584  0.21336574    -0.26000
N245        N  0.21343603  0.68791977  0.16800182    -0.25600
N246        N  0.05973336  0.56358986  0.03229725     0.01500
C247        C  0.01232459  0.75478292  0.20424429     0.42900
C248        C  0.15993971  0.72266468  0.98922212    -0.06800
N249        N  0.21597781  0.57479960  0.16501097    -0.25600
H250        H  0.28643801  0.72859842  0.15737753     0.07000
N251        N  0.99201636  0.72118296  0.17134387    -0.46800
H252        H  0.13382027  0.72755071  0.95733888     0.07000
C253        C  0.23806598  0.51172333  0.00216911     0.42700
C254        C  0.97309427  0.70873995  0.05037492    -0.06300
Co255      Co  0.11073339  0.62273768  0.02437366     0.73800
N256        N  0.22579756  0.73124593  0.04557433    -0.46500
C257        C  0.00588726  0.50471646  0.23350084     0.43000
N258        N  0.05138528  0.52914349  0.99699320    -0.46500
Co259      Co  0.21205105  0.63186967  0.10996319     0.73900
C260        C  0.24939218  0.53440717  0.16899350    -0.06800
C261        C  0.05867873  0.73012221  0.22653737    -0.06400
N262        N  0.02403997  0.56311222  0.06859378    -0.25900
N263        N  0.19192969  0.71932788  0.24288212    -0.46700
H264        H  0.07695726  0.52483326  0.28326754     0.07000
C265        C  0.18570554  0.53137700  0.98837313    -0.06800
Cl266      Cl  0.11629101  0.62566646  0.11604400    -0.49800
C267        C  0.20252731  0.75440617  0.00513820     0.42700
H268        H  0.95370269  0.51922417  0.08030673     0.06900
N269        N  0.25337129  0.54089698  0.04207037    -0.46500
C270        C  0.75424880  0.01675104  0.20440431     0.42600
N271        N  0.68259381  0.06022484  0.20049715     0.01500
C272        C  0.52008473  0.06314291  0.99909999    -0.06400
H273        H  0.71346827  0.07058805  0.94935420     0.07000
C274        C  0.73141846  0.22864437  0.05079233    -0.06800
Co275      Co  0.61945752  0.02404042  0.11491820     0.74200
N276        N  0.67151692  0.05905887  0.01970538    -0.25900
Co277      Co  0.61786811  0.12156206  0.02417494     0.74100
C278        C  0.75140743  0.20287363  0.00515817     0.42700
N279        N  0.68638399  0.21264168  0.17326703     0.01100
N280        N  0.67799213  0.17147820  0.02344104     0.01200
N281        N  0.52367418  0.99689044  0.05735644    -0.46800
H282        H  0.73182945  0.96323123  0.13918249     0.06900
N283        N  0.67268174  0.02138245  0.05402264     0.01500
N284        N  0.56510102  0.18500107  0.02644759     0.01200
C285        C  0.50878790  0.24528742  0.00522099     0.42800
N286        N  0.68421077  0.17550905  0.20822592    -0.25400
C287        C  0.52974236  0.98811385  0.18749179    -0.06300
N288        N  0.72702711  0.05680047  0.22542265    -0.46500
N289        N  0.52828256  0.19733277  0.99268344    -0.46700
C290        C  0.50735787  0.00496148  0.23585460     0.42600
N291        N  0.56001017  0.03168667  0.06473163     0.01500
N292        N  0.56970957  0.17728303  0.20495558    -0.25400
N293        N  0.67959516  0.02467430  0.16474378    -0.25900
N294        N  0.57265067  0.21551625  0.17094844     0.01100
H295        H  0.51187527  0.15817452  0.26153413     0.07000
H296        H  0.53494726  0.29829141  0.07043533     0.07000
N297        N  0.55928250  0.06974527  0.03065537    -0.26000
N298        N  0.68532077  0.20631165  0.05924871    -0.25600
N299        N  0.56727369  0.05949675  0.21112314     0.01500
C300        C  0.73097919  0.99778627  0.99877834     0.42900
C301        C  0.71905594  0.18632433  0.24469526    -0.06800
N302        N  0.57153513  0.22202009  0.06019170    -0.25600
H303        H  0.74831477  0.25949509  0.07303925     0.07000
N304        N  0.70692090  0.98324666  0.04248001    -0.46800
H305        H  0.72361619  0.16466219  0.27984105     0.07000
C306        C  0.50074682  0.22994687  0.20903154     0.42700
C307        C  0.72309792  0.99551196  0.16432415    -0.06300
Co308      Co  0.62580306  0.11801662  0.20801141     0.73800
N309        N  0.71982459  0.25021367  0.18511212    -0.46500
C310        C  0.49796075  0.01465542  0.01652083     0.43000
N311        N  0.53368585  0.04894857  0.24873563    -0.46500
Co312      Co  0.62963981  0.21573641  0.11594543     0.73900
C313        C  0.53785429  0.26181986  0.04986463    -0.06800
C314        C  0.70698658  0.04777631  0.98344344    -0.06400
N315        N  0.56598087  0.02396542  0.17525347    -0.25900
N316        N  0.71598986  0.16885594  0.98992567    -0.46700
H317        H  0.51290746  0.08560318  0.96481564     0.07000
C318        C  0.52527319  0.18326151  0.23103749    -0.06800
Cl319      Cl  0.62311136  0.11992571  0.11593811    -0.49800
C320        C  0.74275936  0.23610692  0.22955543     0.42700
H321        H  0.52180160  0.95301085  0.16630005     0.06900
N322        N  0.53254191  0.24858031  0.17283414    -0.46500
C323        C  0.62192076  0.61961221  0.11260049    -0.02400
C324        C  0.11790978  0.62021518  0.61351564    -0.02400
C325        C  0.25380130  0.48790894  0.47918946     0.42600
N326        N  0.30805872  0.46607349  0.41886653     0.01500
C327        C  0.30235344  0.23439276  0.27949464    -0.06400
H328        H  0.33714060  0.20962494  0.46868165     0.07000
C329        C  0.50785407  0.30409675  0.45093816    -0.06800
Co330      Co  0.27520667  0.36802996  0.36606867     0.74200
N331        N  0.32023587  0.27701701  0.42145665    -0.25900
Co332      Co  0.37498383  0.27469861  0.36490419     0.74100
C333        C  0.49168872  0.25518438  0.47633929     0.42700
N334        N  0.46447814  0.43039639  0.41177899     0.01100
N335        N  0.43646172  0.27645953  0.41720719     0.01200
N336        N  0.23774607  0.29611717  0.28017085    -0.46800
H337        H  0.20421948  0.41461066  0.46505986     0.06900
N338        N  0.28212377  0.31270265  0.42149526     0.01500
N339        N  0.42820637  0.27797859  0.30717477     0.01200
C340        C  0.46805040  0.26406977  0.23800713     0.42800
N341        N  0.42605376  0.46587039  0.41352573    -0.25400
C342        C  0.24148894  0.42791366  0.27096099    -0.06300
N343        N  0.29705562  0.50315877  0.45284885    -0.46500
N344        N  0.43121452  0.24500973  0.26918308    -0.46700
C345        C  0.26160683  0.47196952  0.24268093     0.42600
N346        N  0.27571234  0.30762891  0.31240139     0.01500
N347        N  0.42453358  0.46906145  0.30478456    -0.25400
N348        N  0.27372769  0.42793964  0.42011373    -0.25900
N349        N  0.46220129  0.43301812  0.30222787     0.01100
H350        H  0.41231892  0.54336524  0.26630826     0.07000
H351        H  0.52035089  0.33592753  0.24764541     0.07000
N352        N  0.31369638  0.27191268  0.31288987    -0.26000
N353        N  0.47152974  0.31388306  0.41478604    -0.25600
N354        N  0.30874997  0.46086928  0.30778277     0.01500
C355        C  0.26609124  0.26417257  0.48378735     0.42900
C356        C  0.43508407  0.49906586  0.45084562    -0.06800
N357        N  0.46211863  0.31628621  0.30357124    -0.25600
H358        H  0.54250216  0.32704806  0.45720735     0.07000
N359        N  0.24812308  0.30617164  0.45833160    -0.46800
H360        H  0.41123312  0.53299768  0.46077675     0.07000
C361        C  0.48384765  0.49115380  0.24587984     0.42700
C362        C  0.23839368  0.43791417  0.45700284    -0.06300
Co363      Co  0.36654521  0.46676904  0.36142670     0.73800
N364        N  0.50058869  0.43727108  0.44638879    -0.46500
C365        C  0.25188093  0.25041849  0.25755409     0.43000
N366        N  0.30248756  0.49150594  0.26788099    -0.46500
Co367      Co  0.46648684  0.37318871  0.35794388     0.73900
C368        C  0.48894713  0.31103564  0.26057724    -0.06800
C369        C  0.31352149  0.24423218  0.46017657    -0.06400
N370        N  0.27373721  0.42345670  0.31017666    -0.25900
N371        N  0.44737899  0.24049660  0.45255840    -0.46700
H372        H  0.32549458  0.19904414  0.27325748     0.07000
C373        C  0.43481152  0.50728932  0.27086169    -0.06800
Cl374      Cl  0.37090491  0.37079255  0.36281149    -0.49800
C375        C  0.48397615  0.47959610  0.47185499     0.42700
H376        H  0.20844405  0.40318294  0.26321308     0.06900
N377        N  0.49861314  0.44490602  0.26783946    -0.46500
C378        C  0.73696460  0.74577142  0.72009308     0.42600
N379        N  0.71469057  0.68614629  0.66702263     0.01500
C380        C  0.47956575  0.68183899  0.53230612    -0.06400
H381        H  0.47055890  0.65118826  0.73341076     0.07000
C382        C  0.55637208  0.48117567  0.71325828    -0.06800
Co383      Co  0.61427555  0.71350519  0.61421692     0.74200
N384        N  0.52790868  0.67109109  0.67661992    -0.25900
Co385      Co  0.52504761  0.61285009  0.62320494     0.74100
C386        C  0.50446160  0.49522165  0.73419046     0.42700
N387        N  0.68329306  0.53242213  0.67881737     0.01100
N388        N  0.52880473  0.55415969  0.67955928     0.01200
N389        N  0.53912560  0.74617129  0.52923229    -0.46800
H390        H  0.66150314  0.79406629  0.70383806     0.06900
N391        N  0.56121019  0.70996551  0.67227454     0.01500
N392        N  0.52996814  0.55431055  0.57069111     0.01200
C393        C  0.51226879  0.50317602  0.51152467     0.42800
N394        N  0.71773501  0.57038762  0.67560434    -0.25400
C395        C  0.67285366  0.74036000  0.51569143    -0.06300
N396        N  0.75253638  0.70007006  0.69837848    -0.46500
N397        N  0.49480331  0.54594870  0.53569226    -0.46700
C398        C  0.71983307  0.72029145  0.49122006     0.42600
N399        N  0.55267188  0.70920175  0.56265440     0.01500
N400        N  0.72044511  0.56064666  0.56584425    -0.25400
N401        N  0.67547112  0.72037164  0.66592518    -0.25900
N402        N  0.68690709  0.52187223  0.56760763     0.01100
H403        H  0.78994961  0.57484486  0.52162291     0.07000
H404        H  0.58558449  0.45100264  0.52508721     0.07000
N405        N  0.51825289  0.67128750  0.56593679    -0.26000
N406        N  0.56772028  0.51943693  0.67956800    -0.25600
N407        N  0.70806357  0.67591680  0.55786118     0.01500
C408        C  0.52174311  0.72416804  0.74160747     0.42900
C409        C  0.74776263  0.56909926  0.71673774    -0.06800
N410        N  0.56890975  0.51928252  0.57058548    -0.25600
H411        H  0.57922032  0.44544242  0.71860978     0.07000
N412        N  0.55803577  0.74332037  0.70991080    -0.46800
H413        H  0.77962213  0.59523910  0.72475914     0.07000
C414        C  0.74326764  0.49913205  0.50933332     0.42700
C415        C  0.68563322  0.75923690  0.69842767    -0.06300
Co416      Co  0.71652162  0.62315730  0.61651799     0.73800
N417        N  0.68775854  0.50491457  0.72096042    -0.46500
C418        C  0.49342028  0.73202738  0.50783941     0.43000
N419        N  0.74020001  0.68080362  0.51906387    -0.46500
Co420      Co  0.62724003  0.52188959  0.62404139     0.73900
C421        C  0.56106393  0.48482401  0.53385262    -0.06800
C422        C  0.50122888  0.67659551  0.71973939    -0.06400
N423        N  0.66880284  0.71039801  0.55693461    -0.25900
N424        N  0.49009762  0.54080935  0.71088436    -0.46700
H425        H  0.44428920  0.65928471  0.52813734     0.07000
C426        C  0.75699634  0.55013948  0.53036156    -0.06800
Cl427      Cl  0.62067891  0.61769912  0.61920242    -0.49800
C428        C  0.72706777  0.52635699  0.74698807     0.42700
H429        H  0.64724839  0.77298031  0.50539028     0.06900
N430        N  0.69921377  0.48413556  0.53462642    -0.46500
C431        C  0.61949291  0.11753301  0.61415102    -0.02400
C432        C  0.12445762  0.12322589  0.11879987    -0.02400
C433        C  0.22764858  0.16506075  0.21788546    -0.21200
C434        C  0.21814832  0.21915233  0.22326163    -0.09200
C435        C  0.17582405  0.24201914  0.19657213     0.29600
C436        C  0.14587426  0.21192615  0.16324362    -0.21200
C437        C  0.15703850  0.15788561  0.15543438    -0.09200
C438        C  0.19683904  0.13466806  0.18601293     0.29600
F439        F  0.20768072  0.08245734  0.18368904    -0.19800
H440        H  0.25867097  0.14563988  0.23908018     0.18000
H441        H  0.11332715  0.23129446  0.14435064     0.18000
F442        F  0.16337106  0.29362327  0.20239035    -0.19800
C443        C  0.58356268  0.21143372  0.58470114    -0.21200
C444        C  0.58233873  0.15578048  0.58225471    -0.09200
C445        C  0.54501506  0.13485799  0.54825195     0.29600
C446        C  0.51521579  0.16732998  0.51552923    -0.21200
C447        C  0.52092045  0.22204216  0.51479392    -0.09200
C448        C  0.55462049  0.24381770  0.55080782     0.29600
F449        F  0.55892176  0.29668943  0.55412285    -0.19800
H450        H  0.60683542  0.23094727  0.61257103     0.18000
H451        H  0.48876964  0.14914128  0.48920191     0.18000
F452        F  0.53903914  0.08225937  0.54446543    -0.19800
C453        C  0.15788552  0.52849241  0.58534794    -0.21200
C454        C  0.15707784  0.58411515  0.58219805    -0.09200
C455        C  0.19399232  0.60682332  0.54821788     0.29600
C456        C  0.22625626  0.57560160  0.51649575    -0.21200
C457        C  0.22326000  0.52057308  0.51696739    -0.09200
C458        C  0.18930622  0.49743166  0.55277165     0.29600
F459        F  0.18669021  0.44440901  0.55693609    -0.19800
H460        H  0.13396478  0.50799936  0.61264360     0.18000
H461        H  0.25232669  0.59484409  0.48996814     0.18000
F462        F  0.19695634  0.65976037  0.54355940    -0.19800
C463        C  0.51761544  0.57814457  0.21399986    -0.21200
C464        C  0.51716563  0.52312010  0.21068355    -0.09200
C465        C  0.54860612  0.49926019  0.17332668     0.29600
C466        C  0.57992714  0.52960499  0.14066170    -0.21200
C467        C  0.58433153  0.58480989  0.14620821    -0.09200
C468        C  0.55053805  0.60846733  0.18274993     0.29600
F469        F  0.55022467  0.66121294  0.18936559    -0.19800
H470        H  0.49335400  0.59790541  0.24198968     0.18000
H471        H  0.59987382  0.50889149  0.11055090     0.18000
F472        F  0.54790294  0.44642791  0.16723244    -0.19800
C473        C  0.81379125  0.24681613  0.29433488    -0.21200
C474        C  0.77692652  0.27003348  0.26149878    -0.09200
C475        C  0.77256332  0.32517465  0.26085930     0.29600
C476        C  0.80303029  0.35575514  0.29359984    -0.21200
C477        C  0.83902344  0.33283949  0.32855762    -0.09200
C478        C  0.84537721  0.27712621  0.32604156     0.29600
F479        F  0.88362882  0.25081142  0.35159730    -0.19800
H480        H  0.81929038  0.20456459  0.29454641     0.18000
H481        H  0.79764301  0.39799013  0.29249129     0.18000
F482        F  0.73734242  0.34965936  0.22995768    -0.19800
C483        C  0.89619076  0.46087118  0.32261229    -0.21200
C484        C  0.90409725  0.40565777  0.32690277    -0.09200
C485        C  0.94213445  0.38341069  0.29338710     0.29600
C486        C  0.97550638  0.41537915  0.26379631    -0.21200
C487        C  0.97064819  0.47041959  0.26461756    -0.09200
C488        C  0.92928693  0.49254422  0.29291564     0.29600
F489        F  0.92072724  0.54526663  0.29185169    -0.19800
H490        H  0.86412496  0.48057255  0.34178928     0.18000
H491        H  0.00535587  0.39700025  0.24026708     0.18000
F492        F  0.94880387  0.33053169  0.29097234    -0.19800
C493        C  0.88245510  0.30390379  0.43837001    -0.21200
C494        C  0.90699379  0.33804449  0.40312999    -0.09200
C495        C  0.96226325  0.34376887  0.40911217     0.29600
C496        C  0.99095649  0.31271954  0.44427422    -0.21200
C497        C  0.96631152  0.27602163  0.47600986    -0.09200
C498        C  0.91121388  0.27307513  0.47333679     0.29600
F499        F  0.88445005  0.24134275  0.50547063    -0.19800
H500        H  0.84023217  0.29995553  0.43781589     0.18000
H501        H  0.03299525  0.31757386  0.44670586     0.18000
F502        F  0.98938453  0.38091405  0.38365669    -0.19800
C503        C  0.85778434  0.44250704  0.43076641    -0.21200
C504        C  0.83436163  0.40407521  0.40017283    -0.09200
C505        C  0.77978545  0.39572800  0.40897685     0.29600
C506        C  0.75089032  0.42646844  0.44413435    -0.21200
C507        C  0.77447211  0.46650354  0.47194027    -0.09200
C508        C  0.82863330  0.47409556  0.46438419     0.29600
F509        F  0.85454230  0.51101076  0.49064374    -0.19800
H510        H  0.89963247  0.44877446  0.42794011     0.18000
H511        H  0.70962650  0.41862503  0.44979660     0.18000
F512        F  0.75405931  0.35603013  0.38668578    -0.19800
C513        C  0.32494607  0.77526490  0.26061608    -0.21200
C514        C  0.26977313  0.77780711  0.26294231    -0.09200
C515        C  0.24693743  0.81346004  0.29737740     0.29600
C516        C  0.27830484  0.84546367  0.32813683    -0.21200
C517        C  0.33396914  0.84037275  0.32912526    -0.09200
C518        C  0.35637124  0.80522863  0.29309381     0.29600
F519        F  0.40918098  0.79839932  0.29017335    -0.19800
H520        H  0.34415031  0.74861315  0.23442012     0.18000
H521        H  0.25785791  0.87420492  0.35092117     0.18000
F522        F  0.19392980  0.81850915  0.30050037    -0.19800
C523        C  0.49493020  0.92977655  0.29704790    -0.21200
C524        C  0.47324306  0.97251546  0.27018536    -0.09200
C525        C  0.41833387  0.97918071  0.27140343     0.29600
C526        C  0.38655142  0.94534735  0.30070313    -0.21200
C527        C  0.40822569  0.90452740  0.33148691    -0.09200
C528        C  0.46348179  0.89574518  0.32618232     0.29600
F529        F  0.48772006  0.85234314  0.34546964    -0.19800
H530        H  0.53668018  0.92159272  0.29418470     0.18000
H531        H  0.34450870  0.95226403  0.30088165     0.18000
F532        F  0.39517639  0.01809613  0.24365995    -0.19800
C533        C  0.31933319  0.99138133  0.44864102    -0.21200
C534        C  0.27762927  0.96967334  0.47609470    -0.09200
C535        C  0.26830327  0.91573525  0.46984626     0.29600
C536        C  0.29902984  0.88534735  0.43613693    -0.21200
C537        C  0.33832200  0.90762982  0.40476139    -0.09200
C538        C  0.34971278  0.96132458  0.41448446     0.29600
F539        F  0.39234940  0.98503690  0.39453064    -0.19800
H540        H  0.32915637  0.03213288  0.45398617     0.18000
H541        H  0.29117926  0.84381309  0.43365656     0.18000
F542        F  0.23016338  0.89172699  0.49710209    -0.19800
C543        C  0.44013141  0.85299335  0.43595692    -0.21200
C544        C  0.40163681  0.83239898  0.40344847    -0.09200
C545        C  0.39072373  0.77799010  0.41022211     0.29600
C546        C  0.42041504  0.74606497  0.44381560    -0.21200
C547        C  0.46138165  0.76650621  0.47262728    -0.09200
C548        C  0.47051373  0.82079360  0.46841448     0.29600
F549        F  0.50843400  0.84335611  0.49634847    -0.19800
H550        H  0.44816103  0.89460582  0.43478096     0.18000
H551        H  0.41101497  0.70487319  0.44735159     0.18000
F552        F  0.34960752  0.75524776  0.38722085    -0.19800
C553        C  0.27726290  0.34673606  0.82880857    -0.21200
C554        C  0.33132565  0.33532966  0.83623179    -0.09200
C555        C  0.35259790  0.29318315  0.80711363     0.29600
C556        C  0.32073443  0.26214055  0.77607031    -0.21200
C557        C  0.26663379  0.27252353  0.77101961    -0.09200
C558        C  0.24547549  0.31554815  0.79801836     0.29600
F559        F  0.19358538  0.32776721  0.79531907    -0.19800
H560        H  0.25873731  0.38062530  0.84593904     0.18000
H561        H  0.33881776  0.23002715  0.75540564     0.18000
F562        F  0.40440584  0.28061495  0.80957626    -0.19800
C563        C  0.29255638  0.38878537  0.93631086    -0.21200
C564        C  0.33477769  0.40821285  0.90669492    -0.09200
C565        C  0.34848692  0.46140417  0.91590724     0.29600
C566        C  0.31748374  0.49404696  0.94736321    -0.21200
C567        C  0.27265508  0.47531685  0.97204105    -0.09200
C568        C  0.26101471  0.42191206  0.96690712     0.29600
F569        F  0.21952209  0.40142802  0.99221048    -0.19800
H570        H  0.28281188  0.34765532  0.93444221     0.18000
H571        H  0.32858019  0.53453655  0.95228383     0.18000
F572        F  0.39336883  0.48208321  0.89735753    -0.19800
C573        C  0.42740658  0.25269870  0.95183217    -0.21200
C574        C  0.47046883  0.27673703  0.97440783    -0.09200
C575        C  0.47619656  0.33108386  0.96754237     0.29600
C576        C  0.44098222  0.35993771  0.93710653    -0.21200
C577        C  0.40032164  0.33550551  0.91006449    -0.09200
C578        C  0.39180271  0.28163629  0.92148606     0.29600
F579        F  0.34827749  0.25682851  0.90565408    -0.19800
H580        H  0.42065774  0.21133447  0.95856822     0.18000
H581        H  0.44779260  0.40145548  0.93188690     0.18000
F582        F  0.51768103  0.35606236  0.98775703    -0.19800
C583        C  0.38314179  0.44149163  0.80349610    -0.21200
C584        C  0.40413793  0.39959415  0.83303148    -0.09200
C585        C  0.45788289  0.38617291  0.82370257     0.29600
C586        C  0.48953460  0.41737724  0.79214783    -0.21200
C587        C  0.46934579  0.46211879  0.76714755    -0.09200
C588        C  0.41522005  0.47324632  0.77263417     0.29600
F589        F  0.39290157  0.51492476  0.74819381    -0.19800
H590        H  0.34180653  0.45151028  0.80652203     0.18000
H591        H  0.53034462  0.40609000  0.78729445     0.18000
F592        F  0.48039804  0.34170469  0.84279972    -0.19800
C593        C  0.22069892  0.66583111  0.71434263    -0.21200
C594        C  0.21937618  0.72094537  0.71044005    -0.09200
C595        C  0.18739074  0.74341228  0.67234837     0.29600
C596        C  0.15654691  0.71199605  0.64072071    -0.21200
C597        C  0.15475344  0.65656160  0.64628349    -0.09200
C598        C  0.19044183  0.63425586  0.68217950     0.29600
F599        F  0.19484558  0.58133044  0.68752179    -0.19800
H600        H  0.24599513  0.64683730  0.74202090     0.18000
H601        H  0.13501119  0.73218470  0.61122663     0.18000
F602        F  0.18497418  0.79628013  0.66590208    -0.19800
C603        C  0.24300894  0.06982502  0.03720175    -0.21200
C604        C  0.22052486  0.02742512  0.01258935    -0.09200
C605        C  0.16702439  0.01791091  0.02038344     0.29600
C606        C  0.13707306  0.04963143  0.05334000    -0.21200
C607        C  0.16014309  0.08973474  0.08222827    -0.09200
C608        C  0.21372156  0.10081675  0.07115887     0.29600
F609        F  0.23822045  0.14280698  0.09075878    -0.19800
H610        H  0.28390582  0.07868744  0.03055791     0.18000
H611        H  0.09568748  0.04168633  0.05772789     0.18000
F612        F  0.14354653  0.97814186  0.99578052    -0.19800
C613        C  0.51890421  0.65932804  0.00931672    -0.21200
C614        C  0.51219240  0.71371055  0.01554334    -0.09200
C615        C  0.53863238  0.73734433  0.05587595     0.29600
C616        C  0.57262437  0.70777906  0.08724548    -0.21200
C617        C  0.58264973  0.65351658  0.07925261    -0.09200
C618        C  0.55177696  0.62947041  0.04152282     0.29600
F619        F  0.55467148  0.57681534  0.03440953    -0.19800
H620        H  0.49774093  0.63931956  0.97996966     0.18000
H621        H  0.58970989  0.72798797  0.11872096     0.18000
F622        F  0.53165215  0.78928261  0.06539722    -0.19800
C623        C  0.53953129  0.99909985  0.67195414    -0.21200
C624        C  0.51385273  0.02259663  0.71333596    -0.09200
C625        C  0.51852472  0.07744080  0.71854526     0.29600
C626        C  0.54953471  0.10681734  0.68463397    -0.21200
C627        C  0.58054816  0.08268858  0.64643093    -0.09200
C628        C  0.57171585  0.02813690  0.63878324     0.29600
F629        F  0.59091935  0.00251147  0.59775265    -0.19800
H630        H  0.53471215  0.95759404  0.66507164     0.18000
H631        H  0.55187100  0.14880260  0.69017882     0.18000
F632        F  0.49280017  0.10335625  0.75606302    -0.19800
C633        C  0.69500513  0.17240967  0.73296094    -0.21200
C634        C  0.72500233  0.21283444  0.71194521    -0.09200
C635        C  0.72597773  0.21728941  0.65860778     0.29600
C636        C  0.69396174  0.18535613  0.62821530    -0.21200
C637        C  0.65898329  0.14822950  0.64949467    -0.09200
C638        C  0.66462414  0.13934656  0.70269471     0.29600
F639        F  0.64412883  0.09685262  0.72622004    -0.19800
H640        H  0.69613417  0.16526581  0.77341907     0.18000
H641        H  0.69489385  0.19121593  0.58756739     0.18000
F642        F  0.75637155  0.25377371  0.63564501    -0.19800
C643        C  0.08348029  0.22475677  0.01411427    -0.21200
C644        C  0.02934938  0.21789100  0.00970871    -0.09200
C645        C  0.00565858  0.17902005  0.03980018     0.29600
C646        C  0.03556605  0.14832331  0.07390452    -0.21200
C647        C  0.08979253  0.15710201  0.08129658    -0.09200
C648        C  0.11320415  0.19526086  0.04911634     0.29600
F649        F  0.16514336  0.20518057  0.05194453    -0.19800
H650        H  0.10283048  0.25428832  0.99133379     0.18000
H651        H  0.01567715  0.11707304  0.09361107     0.18000
F652        F  0.95361489  0.16960120  0.03527898    -0.19800
C653        C  0.69349828  0.55209790  0.99664324    -0.21200
C654        C  0.71838967  0.50877276  0.01984020    -0.09200
C655        C  0.71790420  0.50622329  0.07317652     0.29600
C656        C  0.69072436  0.54434639  0.10194845    -0.21200
C657        C  0.66025440  0.58484506  0.07889095    -0.09200
C658        C  0.66677646  0.59064278  0.02546913     0.29600
F659        F  0.64981707  0.63443458  0.00061087    -0.19800
H660        H  0.69630671  0.55717672  0.95595822     0.17200
H661        H  0.69030697  0.53982252  0.14273070     0.18000
F662        F  0.74169346  0.46539391  0.09774346    -0.19800
C663        C  0.07932560  0.59053925  0.70265767    -0.21200
C664        C  0.08000746  0.58691276  0.64890771    -0.09200
C665        C  0.04324929  0.55173162  0.62799828     0.29600
C666        C  0.01113547  0.52002313  0.65899417    -0.21200
C667        C  0.01427036  0.52122428  0.71215528    -0.09200
C668        C  0.04890446  0.55713202  0.73348361     0.29600
F669        F  0.05258061  0.56100154  0.78455688    -0.19800
H670        H  0.10215132  0.61921147  0.72215056     0.18000
H671        H  0.98457642  0.49326229  0.64101614     0.18000
F672        F  0.03915502  0.54657748  0.57712530    -0.19800
C673        C  0.68475424  0.69839747  0.12509069    -0.21200
C674        C  0.65882483  0.65444252  0.14641807    -0.09200
C675        C  0.67098866  0.64272782  0.19797714     0.29600
C676        C  0.70258176  0.67609539  0.22693612    -0.21200
C677        C  0.72334612  0.72239613  0.20643122    -0.09200
C678        C  0.71411486  0.73310179  0.15491116     0.29600
F679        F  0.73412293  0.77687799  0.13307016    -0.19800
H680        H  0.68024514  0.70738174  0.08520348     0.18000
H681        H  0.71092622  0.66555125  0.26591956     0.18000
F682        F  0.65478803  0.59782499  0.22060032    -0.19800
C683        C  0.06805641  0.00727556  0.20179224    -0.21200
C684        C  0.02599207  0.03196207  0.22723352    -0.09200
C685        C  0.01831877  0.08627669  0.21908778     0.29600
C686        C  0.05055057  0.11404354  0.18518456    -0.21200
C687        C  0.09039694  0.08893046  0.15611949    -0.09200
C688        C  0.10016224  0.03489003  0.16750113     0.29600
F689        F  0.14240067  0.00856637  0.14852388    -0.19800
H690        H  0.07658341  0.96604578  0.20875928     0.18000
H691        H  0.04364942  0.15589875  0.18084603     0.18000
F692        F  0.98063129  0.11337813  0.24477562    -0.19800
C693        C  0.04129163  0.67255370  0.49217241    -0.21200
C694        C  0.01231790  0.71529841  0.51099578    -0.09200
C695        C  0.01529215  0.72521831  0.56328635     0.29600
C696        C  0.04680722  0.69314928  0.59543215    -0.21200
C697        C  0.08038249  0.65284112  0.57630223    -0.09200
C698        C  0.07438638  0.64178171  0.52356945     0.29600
F699        F  0.09761792  0.59946773  0.50159185    -0.19800
H700        H  0.03878121  0.66309638  0.45235069     0.18000
H701        H  0.04674621  0.70140978  0.63558248     0.18000
F702        F  0.98760665  0.76596959  0.58349739    -0.19800
C703        C  0.71711209  0.00904872  0.56412577    -0.21200
C704        C  0.71509097  0.01579016  0.51132206    -0.09200
C705        C  0.68615218  0.05869729  0.49203085     0.29600
C706        C  0.65740720  0.09211506  0.52443529    -0.21200
C707        C  0.65532938  0.08349158  0.57764811    -0.09200
C708        C  0.68869323  0.04280340  0.59686464     0.29600
F709        F  0.69193614  0.03395843  0.64747705    -0.19800
H710        H  0.74093244  0.97754531  0.58017383     0.18000
H711        H  0.63725201  0.12505767  0.50689742     0.18000
F712        F  0.68594579  0.06865264  0.44145839    -0.19800
C713        C  0.83899379  0.95826387  0.90562190    -0.21200
C714        C  0.83203184  0.90348601  0.90085245    -0.09200
C715        C  0.79574467  0.87997147  0.93489959     0.29600
C716        C  0.76474690  0.91041964  0.96799302    -0.21200
C717        C  0.76864331  0.96519204  0.96856607    -0.09200
C718        C  0.80715178  0.98868478  0.93796870     0.29600
F719        F  0.81480873  0.04123200  0.93992099    -0.19800
H720        H  0.86918865  0.97840341  0.88472355     0.18000
H721        H  0.73603207  0.89116529  0.99178553     0.18000
F722        F  0.78835928  0.82736919  0.93461709    -0.19800
C723        C  0.95554553  0.89001864  0.82123895    -0.21200
C724        C  0.90120634  0.90137431  0.82699724    -0.09200
C725        C  0.87996123  0.94121166  0.79484343     0.29600
C726        C  0.91222824  0.97111232  0.76274164    -0.21200
C727        C  0.96649330  0.96110245  0.75947320    -0.09200
C728        C  0.98763739  0.91964119  0.78888697     0.29600
F729        F  0.03966842  0.90767580  0.78719065    -0.19800
H730        H  0.97405278  0.85748723  0.84102225     0.18000
H731        H  0.89438249  0.00184945  0.73974096     0.18000
F732        F  0.82766827  0.95206738  0.79496807    -0.19800
C733        C  0.85280235  0.79967672  0.79360607    -0.21200
C734        C  0.82896321  0.83742097  0.82584067    -0.09200
C735        C  0.77429680  0.84719099  0.81875201     0.29600
C736        C  0.74516167  0.81722266  0.78476711    -0.21200
C737        C  0.76892988  0.77749221  0.75564408    -0.09200
C738        C  0.82344847  0.76961882  0.75995887     0.29600
F739        F  0.84888454  0.73356508  0.73085939    -0.19800
H740        H  0.89476293  0.79262695  0.79535140     0.18000
H741        H  0.70356175  0.82551309  0.78115850     0.18000
F742        F  0.74850241  0.88731331  0.84195435    -0.19800
C743        C  0.88765926  0.77658826  0.90378377    -0.21200
C744        C  0.89732025  0.83110883  0.89893503    -0.09200
C745        C  0.93524555  0.85216443  0.93205543     0.29600
C746        C  0.96444461  0.81974759  0.96504236    -0.21200
C747        C  0.95550117  0.76578752  0.96786464    -0.09200
C748        C  0.91637811  0.74452409  0.93750958     0.29600
F749        F  0.90584968  0.69252628  0.94047191    -0.19800
H750        H  0.85676262  0.75822017  0.88288572     0.18000
H751        H  0.99408960  0.83695518  0.98868091     0.18000
F752        F  0.94492906  0.90439109  0.93185289    -0.19800
loop_ 
_geom_bond_atom_site_label_1 
_geom_bond_atom_site_label_2 
_geom_bond_distance 
_geom_bond_site_symmetry_2 
_ccdc_geom_bond_type 
C1          C714   1.569       .  S
C1          C724   1.574       .  S
C1          C734   1.572       .  S
C1          C744   1.571       .  S
C2           N20   1.333       .  A
C2           C39   1.440       .  S
C2          C184   1.398   1_665  S
N3           N20   1.308       .  A
N3           N25   1.317       .  A
N3          Co40   2.015       .  S
C4           N29   1.326       .  A
C4           C42   1.453       .  S
C4           H49   1.081       .  S
H5           C46   1.081       .  S
C6           N30   1.329       .  A
C6           C10   1.444       .  S
C6           H35   1.082       .  S
Co7          N25   2.021       .  S
Co7          N15   2.083       .  S
Co7          N47   2.095       .  S
Co7          N23   2.017       .  S
Co7         Cl51   2.446       .  S
N8           C46   1.354       .  A
N8           N15   1.320       .  A
N8           Co9   2.134       .  S
Co9          N12   2.056       .  S
Co9          N29   2.055       .  S
Co9          N16   2.124       .  S
Co9         Cl51   2.443       .  S
C10          N48   1.341       .  A
C10         C398   1.422       .  S
N11          N18   1.318       .  A
N11          N41   1.335       .  A
N11         Co44   2.130       .  S
N12          N30   1.324       .  A
N12          N48   1.316       .  A
N13          C42   1.335   1_545  A
N13          N23   1.313   1_545  A
H14          C39   1.082   1_545  S
N15          N36   1.328       .  A
N16          N34   1.320       .  A
N16          N21   1.335       .  A
C17          N21   1.360       .  A
C17          C45   1.465       .  S
C17         C677   1.506       .  S
N18          C33   1.348       .  A
N18         Co40   2.099       .  S
C19          N47   1.346   1_545  A
C19          C22   1.469       .  S
C19          H53   1.081       .  S
C22          N43   1.357   1_645  A
C22         C684   1.505   1_655  S
N23          N29   1.317       .  A
N24          C50   1.327       .  A
N24          N26   1.315       .  A
N24         Co40   2.019       .  S
N25          C39   1.322       .  A
N26          N54   1.313       .  A
N26         Co44   2.054       .  S
H27          C50   1.081   1_455  S
H28          C45   1.081       .  S
N30         Co44   2.051       .  S
N31          N43   1.331   1_655  A
N31          N47   1.316       .  A
N31         Co40   2.107       .  S
C32          N36   1.349       .  A
C32          C46   1.475       .  S
C32         C704   1.497   1_565  S
C33          C52   1.463       .  S
C33          H37   1.081   1_655  S
N34          C45   1.347       .  A
N34         Co44   2.104       .  S
C38          N54   1.345       .  A
C38          C50   1.441       .  S
C38         C247   1.412   1_655  S
Co40        Cl51   2.443       .  S
N41          C52   1.362       .  A
C42         C270   1.411   1_565  S
Co44        Cl51   2.442       .  S
C52         C694   1.506   1_655  S
C55          N73   1.363       .  A
C55          C92   1.457   1_556  S
C55         C654   1.503   1_556  S
N56          N73   1.336       .  A
N56          N78   1.316       .  A
N56         Co93   2.133       .  S
C57          N82   1.350   1_455  A
C57          C95   1.471   1_455  S
C57         H102   1.081       .  S
H58          C99   1.082   1_455  S
C59          N83   1.348       .  A
C59          C63   1.467       .  S
C59          H88   1.082       .  S
Co60         N78   2.074       .  S
Co60         N68   2.023       .  S
Co60        N100   2.006       .  S
Co60         N76   2.072       .  S
Co60       Cl104   2.429       .  S
N61          C99   1.321       .  A
N61          N68   1.320       .  A
N61         Co62   2.023       .  S
Co62         N65   2.111       .  S
Co62         N82   2.110       .  S
Co62         N69   2.015       .  S
Co62       Cl104   2.451       .  S
C63         N101   1.360       .  A
C63         C667   1.510   1_655  S
N64          N71   1.322       .  A
N64          N94   1.315       .  A
N64         Co97   2.064       .  S
N65          N83   1.318       .  A
N65         N101   1.334       .  A
N66          C95   1.348       .  A
N66          N76   1.327       .  A
H67          C92   1.081       .  S
N68          N89   1.309       .  A
N69          N87   1.320       .  A
N69          N74   1.310       .  A
C70          N74   1.331       .  A
C70          C98   1.455       .  S
C70         C214   1.405   1_655  S
N71          C86   1.332       .  A
N71         Co93   2.059       .  S
C72         N100   1.321       .  A
C72          C75   1.431       .  S
C72         H106   1.081   1_556  S
C75          N96   1.352       .  A
C75         C278   1.412   1_556  S
N76          N82   1.315       .  A
N77         C103   1.351       .  A
N77          N79   1.318       .  A
N77         Co93   2.121       .  S
N78          C92   1.342   1_556  A
N79         N107   1.334       .  A
N79         Co97   2.106       .  S
H80         C103   1.081       .  S
H81          C98   1.081       .  S
N83         Co97   2.103       .  S
N84          N96   1.316       .  A
N84         N100   1.316       .  A
N84         Co93   2.074       .  S
C85          N89   1.332       .  A
C85          C99   1.441       .  S
C85         C237   1.400   1_656  S
C86         C105   1.449       .  S
C86          H90   1.081       .  S
N87          C98   1.329       .  A
N87         Co97   2.062       .  S
C91         N107   1.356       .  A
C91         C103   1.474       .  S
C91         C634   1.514       .  S
Co93       Cl104   2.452       .  S
N94         C105   1.345       .  A
C95         C644   1.492   1_656  S
Co97       Cl104   2.438       .  S
C105        C428   1.422       .  S
C108        N126   1.335       .  A
C108        C145   1.434       .  S
C108        C310   1.400   1_566  S
N109        N126   1.308       .  A
N109        N131   1.320       .  A
N109       Co146   2.025       .  S
C110        N135   1.332       .  A
C110        C148   1.462       .  S
C110        H155   1.082       .  S
H111        C152   1.081       .  S
C112        N136   1.329       .  A
C112        C116   1.453       .  S
C112        H141   1.082       .  S
Co113       N131   2.016       .  S
Co113       N121   2.082       .  S
Co113       N153   2.085       .  S
Co113       N129   2.006       .  S
Co113      Cl157   2.428       .  S
N114        C152   1.348       .  A
N114        N121   1.317       .  A
N114       Co115   2.111       .  S
Co115       N118   2.052       .  S
Co115       N135   2.070       .  S
Co115       N122   2.113       .  S
Co115      Cl157   2.455       .  S
C116        N154   1.340       .  A
C116        C408   1.423       .  S
N117        N124   1.317       .  A
N117        N147   1.333       .  A
N117       Co150   2.117       .  S
N118        N136   1.322       .  A
N118        N154   1.316       .  A
N119        C148   1.329       .  A
N119        N129   1.309       .  A
H120        C145   1.082   1_554  S
N121        N142   1.328       .  A
N122        N140   1.318       .  A
N122        N127   1.335       .  A
C123        N127   1.361       .  A
C123        C151   1.469       .  S
C123        C594   1.515       .  S
N124        C139   1.346   1_565  A
N124       Co146   2.092       .  S
C125        N153   1.345       .  A
C125        C128   1.459       .  S
C125        H159   1.082   1_556  S
C128        N149   1.354   1_565  A
C128        C604   1.485   1_566  S
N129        N135   1.318       .  A
N130        C156   1.322       .  A
N130        N132   1.317       .  A
N130       Co146   2.011       .  S
N131        C145   1.322       .  A
N132        N160   1.314       .  A
N132       Co150   2.061       .  S
H133        C156   1.081   1_545  S
H134        C151   1.081       .  S
N136       Co150   2.065       .  S
N137        N149   1.330   1_565  A
N137        N153   1.315       .  A
N137       Co146   2.098       .  S
C138        N142   1.353       .  A
C138        C152   1.471       .  S
C138        C614   1.501   1_556  S
C139        C158   1.469   1_545  S
C139        H143   1.081       .  S
N140        C151   1.348       .  A
N140       Co150   2.109       .  S
C144        N160   1.348       .  A
C144        C156   1.433       .  S
C144        C194   1.405   1_565  S
Co146      Cl157   2.446       .  S
N147        C158   1.360       .  A
C148        C267   1.412   1_556  S
Co150      Cl157   2.432       .  S
C158        C624   1.511   1_565  S
C161        C554   1.584       .  S
C161        C564   1.586       .  S
C161        C577   1.570       .  S
C161        C584   1.580       .  S
C162        C517   1.589       .  S
C162        C527   1.590       .  S
C162        C537   1.587       .  S
C162        C544   1.581       .  S
C163        C477   1.583       .  S
C163        C484   1.585       .  S
C163        C494   1.585       .  S
C163        C504   1.585       .  S
C164        N182   1.356   1_465  A
C164        C201   1.465       .  S
C164        C727   1.498   1_455  S
N165        N182   1.330   1_455  A
N165        N187   1.315       .  A
N165       Co202   2.098       .  S
C166        N191   1.350       .  A
C166        C204   1.474       .  S
C166        H211   1.081       .  S
H167        C208   1.082       .  S
C168        N192   1.346       .  A
C168        C172   1.470       .  S
C168        H197   1.080       .  S
Co169       N187   2.085       .  S
Co169       N177   2.012       .  S
Co169       N209   2.024       .  S
Co169       N185   2.087       .  S
Co169      Cl213   2.441       .  S
N170        C208   1.326       .  A
N170        N177   1.317       .  A
N170       Co171   2.048       .  S
Co171       N174   2.114       .  S
Co171       N191   2.121       .  S
Co171       N178   2.039       .  S
Co171      Cl213   2.441       .  S
C172        N210   1.360       .  A
C172        C557   1.513       .  S
N173        N180   1.316       .  A
N173        N203   1.312       .  A
N173       Co206   2.054       .  S
N174        N192   1.318       .  A
N174        N210   1.334       .  A
N175        C204   1.353   1_565  A
N175        N185   1.330   1_565  A
H176        C201   1.081       .  S
N177        N198   1.311   1_545  A
N178        N196   1.324       .  A
N178        N183   1.312       .  A
C179        N183   1.335       .  A
C179        C207   1.444       .  S
C179        C355   1.409       .  S
N180        C195   1.323   1_455  A
N180       Co202   2.009       .  S
C181        N209   1.322   1_565  A
C181        C184   1.439   1_565  S
C181        H215   1.082       .  S
C184        N205   1.332   1_455  A
N185        N191   1.318       .  A
N186        C212   1.345   1_455  A
N186        N188   1.318       .  A
N186       Co202   2.094       .  S
N187        C201   1.343   1_545  A
N188        N216   1.335       .  A
N188       Co206   2.124       .  S
H189        C212   1.081       .  S
H190        C207   1.082       .  S
N192       Co206   2.100       .  S
N193        N205   1.307   1_455  A
N193        N209   1.320       .  A
N193       Co202   2.016       .  S
C194        N198   1.332   1_545  A
C194        C208   1.453       .  S
C195        C214   1.436   1_655  S
C195        H199   1.081       .  S
N196        C207   1.327       .  A
N196       Co206   2.049       .  S
C200        N216   1.362   1_655  A
C200        C212   1.466       .  S
C200        C497   1.510       .  S
Co202      Cl213   2.441       .  S
N203        C214   1.345       .  A
C204        C534   1.507   1_545  S
Co206      Cl213   2.438       .  S
C217        N235   1.350   1_654  A
C217        C254   1.462       .  S
C217        C747   1.481   1_554  S
N218        N235   1.328   1_554  A
N218        N240   1.316       .  A
N218       Co255   2.091       .  S
C219        N244   1.354       .  A
C219        C257   1.476       .  S
C219        H264   1.081       .  S
H220        C261   1.081       .  S
C221        N245   1.349       .  A
C221        C225   1.469       .  S
C221        H250   1.081       .  S
Co222       N240   2.088       .  S
Co222       N230   2.029       .  S
Co222       N262   2.027       .  S
Co222       N238   2.081       .  S
Co222      Cl266   2.452       .  S
N223        C261   1.328       .  A
N223        N230   1.319       .  A
N223       Co224   2.058       .  S
Co224       N227   2.128       .  S
Co224       N244   2.133       .  S
Co224       N231   2.061       .  S
Co224      Cl266   2.436       .  S
C225        N263   1.361       .  A
C225        C514   1.515       .  S
N226        N233   1.317       .  A
N226        N256   1.315       .  A
N226       Co259   2.071       .  S
N227        N245   1.319       .  A
N227        N263   1.336       .  A
N228        C257   1.351   1_655  A
N228        N238   1.329   1_655  A
H229        C254   1.081       .  S
N230        N251   1.313   1_455  A
N231        N249   1.322       .  A
N231        N236   1.315       .  A
C232        N236   1.344       .  A
C232        C260   1.443       .  S
C232        C345   1.416       .  S
N233        C248   1.323   1_554  A
N233       Co255   2.011       .  S
C234        N262   1.324   1_655  A
C234        C237   1.442   1_655  S
C234        H268   1.082       .  S
C237        N258   1.332   1_554  A
N238        N244   1.318       .  A
N239        C265   1.348   1_554  A
N239        N241   1.317       .  A
N239       Co255   2.094       .  S
N240        C254   1.347   1_455  A
N241        N269   1.333       .  A
N241       Co259   2.114       .  S
H242        C265   1.082       .  S
H243        C260   1.081       .  S
N245       Co259   2.104       .  S
N246        N258   1.306   1_554  A
N246        N262   1.318       .  A
N246       Co255   2.015       .  S
C247        N251   1.337   1_455  A
C247        C261   1.454       .  S
C248        C267   1.431   1_556  S
C248        H252   1.081       .  S
N249        C260   1.329       .  A
N249       Co259   2.049       .  S
C253        N269   1.357       .  A
C253        C265   1.464   1_554  S
C253        C567   1.500   1_554  S
Co255      Cl266   2.428       .  S
N256        C267   1.351       .  A
C257        C487   1.501   1_455  S
Co259      Cl266   2.453       .  S
C270        N288   1.346       .  A
C270        C307   1.441   1_545  S
N271        N288   1.314       .  A
N271        N293   1.317       .  A
N271       Co308   2.058       .  S
C272        N297   1.318   1_556  A
C272        C310   1.438   1_556  S
C272        H317   1.082       .  S
H273        C314   1.081       .  S
C274        N298   1.331       .  A
C274        C278   1.463       .  S
C274        H303   1.082       .  S
Co275       N293   2.026       .  S
Co275       N283   2.099       .  S
Co275       N315   2.092       .  S
Co275       N291   2.024       .  S
Co275      Cl319   2.447       .  S
N276        C314   1.343   1_554  A
N276        N283   1.315       .  A
N276       Co277   2.085       .  S
Co277       N280   2.007       .  S
Co277       N297   2.015       .  S
Co277       N284   2.086       .  S
Co277      Cl319   2.428       .  S
C278        N316   1.328   1_554  A
N279        N286   1.318       .  A
N279        N309   1.332       .  A
N279       Co312   2.099       .  S
N280        N298   1.318       .  A
N280        N316   1.310   1_554  A
N281        C310   1.337   1_565  A
N281        N291   1.309   1_565  A
H282        C307   1.081       .  S
N283        N304   1.331   1_545  A
N284        N302   1.316       .  A
N284        N289   1.330   1_554  A
C285        N289   1.354   1_554  A
C285        C313   1.464       .  S
C285        C574   1.493   1_554  S
N286        C301   1.347       .  A
N286       Co308   2.106       .  S
C287        N315   1.346   1_565  A
C287        C290   1.461   1_565  S
C287        H321   1.081       .  S
C290        N311   1.362       .  A
C290        C524   1.505   1_545  S
N291        N297   1.317       .  A
N292        C318   1.330       .  A
N292        N294   1.322       .  A
N292       Co308   2.063       .  S
N293        C307   1.324   1_545  A
N294        N322   1.315       .  A
N294       Co312   2.049       .  S
H295        C318   1.082       .  S
H296        C313   1.082       .  S
N298       Co312   2.070       .  S
N299        N311   1.337       .  A
N299        N315   1.317       .  A
N299       Co308   2.127       .  S
C300        N304   1.356   1_556  A
C300        C314   1.459   1_565  S
C300        C717   1.491       .  S
C301        C320   1.466       .  S
C301        H305   1.082       .  S
N302        C313   1.345       .  A
N302       Co312   2.097       .  S
C306        N322   1.339       .  A
C306        C318   1.453       .  S
C306        C340   1.420       .  S
Co308      Cl319   2.433       .  S
N309        C320   1.357       .  A
Co312      Cl319   2.449       .  S
C320        C474   1.504       .  S
C323        C467   1.581       .  S
C323        C617   1.578       .  S
C323        C657   1.583       .  S
C323        C674   1.587       .  S
C324        C454   1.581       .  S
C324        C597   1.593       .  S
C324        C664   1.591       .  S
C324        C697   1.594       .  S
C325        N343   1.361       .  A
C325        C362   1.467       .  S
C325        C457   1.509       .  S
N326        N343   1.334       .  A
N326        N348   1.318       .  A
N326       Co363   2.122       .  S
C327        N352   1.342       .  A
C327        C365   1.464       .  S
C327        H372   1.082       .  S
H328        C369   1.082       .  S
C329        N353   1.352       .  A
C329        C333   1.474       .  S
C329        H358   1.081       .  S
Co330       N348   2.098       .  S
Co330       N338   2.030       .  S
Co330       N370   2.034       .  S
Co330       N346   2.101       .  S
Co330      Cl374   2.442       .  S
N331        C369   1.327       .  A
N331        N338   1.319       .  A
N331       Co332   2.039       .  S
Co332       N335   2.095       .  S
Co332       N352   2.088       .  S
Co332       N339   2.038       .  S
Co332      Cl374   2.449       .  S
C333        N371   1.355       .  A
C333        C447   1.507       .  S
N334        N341   1.322       .  A
N334        N364   1.315       .  A
N334       Co367   2.044       .  S
N335        N353   1.319       .  A
N335        N371   1.330       .  A
N336        C365   1.356       .  A
N336        N346   1.330       .  A
H337        C362   1.081       .  S
N338        N359   1.311       .  A
N339        N357   1.317       .  A
N339        N344   1.315       .  A
C340        N344   1.340       .  A
C340        C368   1.452       .  S
N341        C356   1.328       .  A
N341       Co363   2.053       .  S
C342        N370   1.328       .  A
C342        C345   1.443       .  S
C342        H376   1.082       .  S
C345        N366   1.344       .  A
N346        N352   1.318       .  A
N347        C373   1.346       .  A
N347        N349   1.319       .  A
N347       Co363   2.099       .  S
N348        C362   1.346       .  A
N349        N377   1.332       .  A
N349       Co367   2.112       .  S
H350        C373   1.081       .  S
H351        C368   1.082       .  S
N353       Co367   2.124       .  S
N354        N366   1.315       .  A
N354        N370   1.317       .  A
N354       Co363   2.057       .  S
C355        N359   1.335       .  A
C355        C369   1.444       .  S
C356        C375   1.445       .  S
C356        H360   1.082       .  S
N357        C368   1.329       .  A
N357       Co367   2.054       .  S
C361        N377   1.357       .  A
C361        C373   1.465       .  S
C361        C464   1.500       .  S
Co363      Cl374   2.446       .  S
N364        C375   1.337       .  A
C365        C434   1.496       .  S
Co367      Cl374   2.441       .  S
C375        C393   1.418       .  S
C378        N396   1.355       .  A
C378        C415   1.465       .  S
C378        C737   1.497       .  S
N379        N396   1.329       .  A
N379        N401   1.316       .  A
N379       Co416   2.095       .  S
C380        N405   1.353       .  A
C380        C418   1.475       .  S
C380        H425   1.082       .  S
H381        C422   1.082       .  S
C382        N406   1.348       .  A
C382        C386   1.471       .  S
C382        H411   1.081       .  S
Co383       N401   2.089       .  S
Co383       N391   2.042       .  S
Co383       N423   2.050       .  S
Co383       N399   2.089       .  S
Co383      Cl427   2.446       .  S
N384        C422   1.331       .  A
N384        N391   1.319       .  A
N384       Co385   2.058       .  S
Co385       N388   2.102       .  S
Co385       N405   2.119       .  S
Co385       N392   2.047       .  S
Co385      Cl427   2.444       .  S
C386        N424   1.356       .  A
C386        C587   1.508       .  S
N387        N394   1.319       .  A
N387        N417   1.315       .  A
N387       Co420   2.061       .  S
N388        N406   1.318       .  A
N388        N424   1.331       .  A
N389        C418   1.353       .  A
N389        N399   1.328       .  A
H390        C415   1.081       .  S
N391        N412   1.314       .  A
N392        N410   1.324       .  A
N392        N397   1.312       .  A
C393        N397   1.336       .  A
C393        C421   1.448       .  S
N394        C409   1.332       .  A
N394       Co416   2.051       .  S
C395        N423   1.329       .  A
C395        C398   1.446       .  S
C395        H429   1.082       .  S
C398        N419   1.340       .  A
N399        N405   1.318       .  A
N400        C426   1.343       .  A
N400        N402   1.317       .  A
N400       Co416   2.090       .  S
N401        C415   1.345       .  A
N402        N430   1.335       .  A
N402       Co420   2.124       .  S
H403        C426   1.081       .  S
H404        C421   1.082       .  S
N406       Co420   2.106       .  S
N407        N419   1.315       .  A
N407        N423   1.321       .  A
N407       Co416   2.052       .  S
C408        N412   1.340       .  A
C408        C422   1.453       .  S
C409        C428   1.450       .  S
C409        H413   1.082       .  S
N410        C421   1.332       .  A
N410       Co420   2.058       .  S
C414        N430   1.362       .  A
C414        C426   1.466       .  S
C414        C507   1.511       .  S
Co416      Cl427   2.450       .  S
N417        C428   1.344       .  A
C418        C547   1.508       .  S
Co420      Cl427   2.446       .  S
C431        C444   1.587       .  S
C431        C627   1.584       .  S
C431        C637   1.595       .  S
C431        C707   1.579       .  S
C432        C437   1.566       .  S
C432        C607   1.571       .  S
C432        C647   1.574       .  S
C432        C687   1.578       .  S
C433        H440   1.082       .  S
C433        C434   1.404       .  A
C433        C438   1.401       .  A
C434        C435   1.407       .  A
C435        C436   1.408       .  A
C435        F442   1.357       .  S
C436        H441   1.080       .  S
C436        C437   1.418       .  A
C437        C438   1.418       .  A
C438        F439   1.356       .  S
C443        H450   1.078       .  S
C443        C444   1.421       .  A
C443        C448   1.414       .  A
C444        C445   1.424       .  A
C445        C446   1.408       .  A
C445        F452   1.356       .  S
C446        H451   1.083       .  S
C446        C447   1.404       .  A
C447        C448   1.408       .  A
C448        F449   1.357       .  S
C453        H460   1.079       .  S
C453        C454   1.419       .  A
C453        C458   1.411       .  A
C454        C455   1.423       .  A
C455        C456   1.412       .  A
C455        F462   1.357       .  S
C456        H461   1.083       .  S
C456        C457   1.405       .  A
C457        C458   1.411       .  A
C458        F459   1.357       .  S
C463        H470   1.083       .  S
C463        C464   1.406       .  A
C463        C468   1.409       .  A
C464        C465   1.404       .  A
C465        C466   1.408       .  A
C465        F472   1.357       .  S
C466        H471   1.079       .  S
C466        C467   1.422       .  A
C467        C468   1.421       .  A
C468        F469   1.356       .  S
C473        H480   1.083       .  S
C473        C474   1.402       .  A
C473        C478   1.409       .  A
C474        C475   1.407       .  A
C475        C476   1.413       .  A
C475        F482   1.357       .  S
C476        H481   1.083       .  S
C476        C477   1.420       .  A
C477        C478   1.428       .  A
C478        F479   1.354       .  S
C483        H490   1.078       .  S
C483        C484   1.421       .  A
C483        C488   1.408       .  A
C484        C485   1.423       .  A
C485        C486   1.415       .  A
C485        F492   1.357       .  S
C486        H491   1.083   1_655  S
C486        C487   1.406       .  A
C487        C488   1.402       .  A
C488        F489   1.357       .  S
C493        H500   1.083       .  S
C493        C494   1.419       .  A
C493        C498   1.408       .  A
C494        C495   1.428       .  A
C495        C496   1.414       .  A
C495        F502   1.353       .  S
C496        H501   1.083   1_655  S
C496        C497   1.404       .  A
C497        C498   1.410       .  A
C498        F499   1.356       .  S
C503        H510   1.083       .  S
C503        C504   1.416       .  A
C503        C508   1.405       .  A
C504        C505   1.428       .  A
C505        C506   1.416       .  A
C505        F512   1.355       .  S
C506        H511   1.083       .  S
C506        C507   1.407       .  A
C507        C508   1.410       .  A
C508        F509   1.356       .  S
C513        H520   1.083       .  S
C513        C514   1.408       .  A
C513        C518   1.414       .  A
C514        C515   1.408       .  A
C515        C516   1.415       .  A
C515        F522   1.357       .  S
C516        H521   1.078       .  S
C516        C517   1.423       .  A
C517        C518   1.423       .  A
C518        F519   1.356       .  S
C523        H530   1.083       .  S
C523        C524   1.402       .  A
C523        C528   1.411       .  A
C524        C525   1.407       .  A
C525        C526   1.415       .  A
C525        F532   1.357   1_565  S
C526        H531   1.083       .  S
C526        C527   1.421       .  A
C527        C528   1.429       .  A
C528        F529   1.355       .  S
C533        H540   1.083   1_565  S
C533        C534   1.402       .  A
C533        C538   1.409       .  A
C534        C535   1.410       .  A
C535        C536   1.410       .  A
C535        F542   1.357       .  S
C536        H541   1.083       .  S
C536        C537   1.419       .  A
C537        C538   1.429       .  A
C538        F539   1.354       .  S
C543        H550   1.083       .  S
C543        C544   1.417       .  A
C543        C548   1.408       .  A
C544        C545   1.428       .  A
C545        C546   1.413       .  A
C545        F552   1.355       .  S
C546        H551   1.083       .  S
C546        C547   1.405       .  A
C547        C548   1.410       .  A
C548        F549   1.357       .  S
C553        H560   1.079       .  S
C553        C554   1.418       .  A
C553        C558   1.410       .  A
C554        C555   1.424       .  A
C555        C556   1.413       .  A
C555        F562   1.355       .  S
C556        H561   1.083       .  S
C556        C557   1.406       .  A
C557        C558   1.411       .  A
C558        F559   1.356       .  S
C563        H570   1.082       .  S
C563        C564   1.420       .  A
C563        C568   1.412       .  A
C564        C565   1.428       .  A
C565        C566   1.410       .  A
C565        F572   1.355       .  S
C566        H571   1.083       .  S
C566        C567   1.401       .  A
C567        C568   1.405       .  A
C568        F569   1.357       .  S
C573        H580   1.084       .  S
C573        C574   1.404       .  A
C573        C578   1.409       .  A
C574        C575   1.405       .  A
C575        C576   1.403       .  A
C575        F582   1.357       .  S
C576        H581   1.082       .  S
C576        C577   1.417       .  A
C577        C578   1.423       .  A
C578        F579   1.355       .  S
C583        H590   1.083       .  S
C583        C584   1.416       .  A
C583        C588   1.411       .  A
C584        C585   1.427       .  A
C585        C586   1.407       .  A
C585        F592   1.356       .  S
C586        H591   1.082       .  S
C586        C587   1.404       .  A
C587        C588   1.411       .  A
C588        F589   1.357       .  S
C593        H600   1.083       .  S
C593        C594   1.407       .  A
C593        C598   1.415       .  A
C594        C595   1.410       .  A
C595        C596   1.412       .  A
C595        F602   1.357       .  S
C596        H601   1.077       .  S
C596        C597   1.420       .  A
C597        C598   1.425       .  A
C598        F599   1.357       .  S
C603        H610   1.083       .  S
C603        C604   1.398       .  A
C603        C608   1.404       .  A
C604        C605   1.403       .  A
C605        C606   1.406       .  A
C605        F612   1.357   1_544  S
C606        H611   1.083       .  S
C606        C607   1.417       .  A
C607        C608   1.427       .  A
C608        F609   1.355       .  S
C613        H620   1.082   1_554  S
C613        C614   1.404       .  A
C613        C618   1.407       .  A
C614        C615   1.408       .  A
C615        C616   1.407       .  A
C615        F622   1.358       .  S
C616        H621   1.079       .  S
C616        C617   1.419       .  A
C617        C618   1.422       .  A
C618        F619   1.357       .  S
C623        H630   1.084       .  S
C623        C624   1.404   1_565  A
C623        C628   1.411   1_565  A
C624        C625   1.412       .  A
C625        C626   1.410       .  A
C625        F632   1.356       .  S
C626        H631   1.084       .  S
C626        C627   1.417       .  A
C627        C628   1.428       .  A
C628        F629   1.355       .  S
C633        H640   1.083       .  S
C633        C634   1.402       .  A
C633        C638   1.410       .  A
C634        C635   1.412       .  A
C635        C636   1.418       .  A
C635        F642   1.357       .  S
C636        H641   1.083       .  S
C636        C637   1.421       .  A
C637        C638   1.429       .  A
C638        F639   1.355       .  S
C643        H650   1.083   1_554  S
C643        C644   1.399       .  A
C643        C648   1.404       .  A
C644        C645   1.407       .  A
C645        C646   1.407       .  A
C645        F652   1.358   1_455  S
C646        H651   1.080       .  S
C646        C647   1.418       .  A
C647        C648   1.423       .  A
C648        F649   1.354       .  S
C653        H660   1.083       .  S
C653        C654   1.402   1_556  A
C653        C658   1.412   1_556  A
C654        C655   1.410       .  A
C655        C656   1.409       .  A
C655        F662   1.357       .  S
C656        H661   1.082       .  S
C656        C657   1.416       .  A
C657        C658   1.427       .  A
C658        F659   1.356       .  S
C663        H670   1.077       .  S
C663        C664   1.423       .  A
C663        C668   1.411       .  A
C664        C665   1.424       .  A
C665        C666   1.413       .  A
C665        F672   1.356       .  S
C666        H671   1.083   1_455  S
C666        C667   1.407       .  A
C667        C668   1.405       .  A
C668        F669   1.357       .  S
C673        H680   1.082       .  S
C673        C674   1.421       .  A
C673        C678   1.415       .  A
C674        C675   1.426       .  A
C675        C676   1.413       .  A
C675        F682   1.356       .  S
C676        H681   1.083       .  S
C676        C677   1.404       .  A
C677        C678   1.406       .  A
C678        F679   1.357       .  S
C683        H690   1.084   1_545  S
C683        C684   1.405       .  A
C683        C688   1.409       .  A
C684        C685   1.409       .  A
C685        C686   1.406       .  A
C685        F692   1.356   1_455  S
C686        H691   1.083       .  S
C686        C687   1.417       .  A
C687        C688   1.425       .  A
C688        F689   1.355       .  S
C693        H700   1.083       .  S
C693        C694   1.399       .  A
C693        C698   1.410       .  A
C694        C695   1.409       .  A
C695        C696   1.417       .  A
C695        F702   1.357   1_455  S
C696        H701   1.083       .  S
C696        C697   1.420       .  A
C697        C698   1.433       .  A
C698        F699   1.355       .  S
C703        H710   1.083   1_545  S
C703        C704   1.405       .  A
C703        C708   1.413       .  A
C704        C705   1.402       .  A
C705        C706   1.407       .  A
C705        F712   1.357       .  S
C706        H711   1.079       .  S
C706        C707   1.422       .  A
C707        C708   1.422       .  A
C708        F709   1.356       .  S
C713        H720   1.079       .  S
C713        C714   1.416       .  A
C713        C718   1.404       .  A
C714        C715   1.423       .  A
C715        C716   1.405       .  A
C715        F722   1.356       .  S
C716        H721   1.083       .  S
C716        C717   1.401       .  A
C717        C718   1.406       .  A
C718        F719   1.358   1_565  S
C723        H730   1.079       .  S
C723        C724   1.418       .  A
C723        C728   1.404       .  A
C724        C725   1.420       .  A
C725        C726   1.407       .  A
C725        F732   1.357       .  S
C726        H731   1.083   1_565  S
C726        C727   1.405       .  A
C727        C728   1.408       .  A
C728        F729   1.356   1_655  S
C733        H740   1.083       .  S
C733        C734   1.417       .  A
C733        C738   1.405       .  A
C734        C735   1.424       .  A
C735        C736   1.406       .  A
C735        F742   1.355       .  S
C736        H741   1.082       .  S
C736        C737   1.404       .  A
C737        C738   1.406       .  A
C738        F739   1.357       .  S
C743        H750   1.079       .  S
C743        C744   1.419       .  A
C743        C748   1.404       .  A
C744        C745   1.422       .  A
C745        C746   1.403       .  A
C745        F752   1.357       .  S
C746        H751   1.083       .  S
C746        C747   1.399       .  A
C747        C748   1.401       .  A
C748        F749   1.358       .  S
