geometry optimzed in LAMMPS
_audit_creation_date              2020-11-30 
_audit_creation_method            'lammps2cif' 
_symmetry_space_group_name_H-M    'P1' 
_symmetry_Int_Tables_number       1 
_symmetry_cell_setting            triclinic 
loop_ 
_symmetry_equiv_pos_as_xyz 
  x,y,z 
_cell_length_a                    40.84495123 
_cell_length_b                    39.80098494773563 
_cell_length_c                    44.5871357789005 
_cell_angle_alpha                 90.31383074159262 
_cell_angle_beta                  88.98498035614469 
_cell_angle_gamma                 116.03295160946455 
loop_ 
_atom_site_label 
_atom_site_type_symbol 
_atom_site_fract_x 
_atom_site_fract_y 
_atom_site_fract_z 
_atom_site_charge 
C1          C  0.99743831  0.99289214  0.34756527     0.46100
H2          H  0.99821502  0.99526688  0.32271862    -0.02900
C3          C  0.49529884  0.48821167  0.40506939     0.46100
H4          H  0.49487971  0.48650172  0.42993858    -0.02900
C5          C  0.03163994  0.99105096  0.36052920    -0.16600
C6          C  0.99481307  0.02623851  0.36396374    -0.16400
C7          C  0.46391631  0.45782706  0.35908512    -0.16800
C8          C  0.03047675  0.48991436  0.39092071    -0.16700
C9          C  0.49525144  0.02426054  0.39332576    -0.16300
C10         C  0.46236007  0.45519804  0.38981553    -0.16600
Zr11       Zr  0.37964158  0.16328513  0.03137613     2.17500
O12         O  0.40825993  0.16340970  0.07893295    -0.50700
O13         O  0.42977624  0.16119166  0.00260170    -0.73900
O14         O  0.37259159  0.10074987  0.04357875    -0.80700
O15         O  0.40004484  0.26483656  0.04246850    -0.82400
O16         O  0.34766328  0.07441432  0.00012688    -0.78100
O17         O  0.42216518  0.22293674  0.05236585    -0.89700
O18         O  0.41548508  0.15056865  0.45121262    -0.75700
O19         O  0.36197903  0.13103629  0.48324733    -0.85100
O20         O  0.39064686  0.20877385  0.49217465    -0.84800
O21         O  0.31602423  0.12146764  0.03968529    -0.71600
O22         O  0.34260877  0.19407814  0.04575107    -0.83700
Zr23       Zr  0.27061864  0.16541830  0.46489411     2.26400
Zr24       Zr  0.29954887  0.09066067  0.48992662     2.06300
Zr25       Zr  0.35176869  0.23812999  0.00671542     2.10000
Zr26       Zr  0.37159199  0.17575648  0.44575277     1.78800
O27         O  0.32093555  0.27088308  0.03215031    -0.92500
O28         O  0.36272074  0.13586071  0.40205470    -0.40300
O29         O  0.33420759  0.20487343  0.46032301    -0.77000
O30         O  0.30761158  0.13420458  0.45006595    -0.95700
O31         O  0.26140430  0.12121431  0.00399161    -0.89000
O32         O  0.28748385  0.19854772  0.01202417    -0.91800
C33         C  0.43537392  0.15144799  0.47335618     1.01900
C34         C  0.42344327  0.25578487  0.05396476     1.14900
C35         C  0.36014113  0.07270009  0.02579006     1.05700
O36         O  0.29548309  0.03971573  0.45725291    -0.94000
O37         O  0.24706063  0.06400977  0.45971058    -0.89700
O38         O  0.23001510  0.10595948  0.43980244    -0.82900
C39         C  0.22613766  0.07222254  0.44354079     1.12300
O40         O  0.29828834  0.17613527  0.10063850    -0.95900
Zr41       Zr  0.27871108  0.15293012  0.05029239     1.88900
O42         O  0.21599042  0.15213685  0.49634082    -0.72600
O43         O  0.25965574  0.04535139  0.02970471    -0.51800
O44         O  0.25387343  0.09853940  0.08338698    -0.96500
O45         O  0.24949238  0.18890172  0.07351063    -0.53700
O46         O  0.21545189  0.11850164  0.03734023    -0.73100
C47         C  0.19927347  0.13137039  0.01994321     0.99200
O48         O  0.23427404  0.17150049  0.42430877    -0.61900
O49         O  0.39455500  0.30253517  0.49688676    -0.56700
O50         O  0.29352216  0.23233908  0.44534792    -0.93400
O51         O  0.35171536  0.26649062  0.45988794    -0.91800
O52         O  0.42886728  0.23051742  0.43499762    -0.92200
O53         O  0.36957844  0.20646825  0.39922722    -0.91000
C54         C  0.32423703  0.26297190  0.44480319     1.18100
H55         H  0.41590971  0.22691854  0.49127206     0.34000
H56         H  0.29952392  0.12135894  0.43125440     0.44900
H57         H  0.27331277  0.21223354  0.01552584     0.38400
H58         H  0.31328402  0.10406655  0.05562430     0.34900
H59         H  0.38731862  0.14442156  0.39284020     0.26700
H60         H  0.24584976  0.02182910  0.01862705     0.32600
H61         H  0.23041986  0.09723276  0.09102355     0.38500
H62         H  0.44689686  0.22058723  0.43101220     0.33000
H63         H  0.39426189  0.31666031  0.51515691     0.31900
H64         H  0.31868234  0.28724202  0.01647611     0.33500
H65         H  0.22872711  0.17028069  0.08528664     0.32500
H66         H  0.34434318  0.20384971  0.39852129     0.36500
H67         H  0.22653317  0.19071160  0.43104900     0.29200
H68         H  0.42793741  0.15610982  0.07375610     0.33500
H69         H  0.27834883  0.16006305  0.11443240     0.36300
H70         H  0.41912228  0.30328691  0.49607203     0.28900
H71         H  0.25164031  0.18320507  0.40744327     0.41800
H72         H  0.27911374  0.01639896  0.46781474     0.31900
H73         H  0.35705064  0.11089358  0.41045832     0.39500
H74         H  0.23780112  0.19627806  0.05724417     0.31300
H75         H  0.27642385  0.04005828  0.04244901     0.31400
H76         H  0.39010788  0.14195662  0.09047902     0.31700
C77         C  0.36659437  0.36591848  0.42058372     0.03800
C78         C  0.33565551  0.37221960  0.42697770    -0.12400
C79         C  0.30159224  0.34181578  0.43372564     0.01300
C80         C  0.29770041  0.30511665  0.43072568    -0.10900
C81         C  0.32807440  0.29811176  0.42963621     0.03800
C82         C  0.36276703  0.32875239  0.42346062    -0.10300
H83         H  0.33864155  0.40058357  0.42870338     0.09300
H84         H  0.27139309  0.28186446  0.43544438     0.06900
H85         H  0.38689445  0.32395726  0.42235426     0.06700
Zr86       Zr  0.22012240  0.38998654  0.47284501     2.17500
O87         O  0.25560941  0.42366380  0.42893786    -0.50700
O88         O  0.26949130  0.43563774  0.50353650    -0.73900
O89         O  0.19913360  0.43585029  0.45224914    -0.80700
O90         O  0.25517978  0.31899337  0.47007262    -0.82400
O91         O  0.13984328  0.41809729  0.46527176    -0.78100
O92         O  0.26566301  0.37421678  0.44817558    -0.89700
O93         O  0.26120904  0.41828979  0.05257997    -0.75700
O94         O  0.18685348  0.39930744  0.01307176    -0.85100
O95         O  0.23116053  0.36058162  0.01577860    -0.84800
O96         O  0.15749623  0.35878879  0.45760109    -0.71600
O97         O  0.19758718  0.32377735  0.46348709    -0.83700
Zr98       Zr  0.11142382  0.27550854  0.03285690     2.26400
Zr99       Zr  0.12413539  0.36693588  0.99927649     2.06300
Zr100      Zr  0.20713860  0.29593357  0.50774673     2.10000
Zr101      Zr  0.19860089  0.37124405  0.05631440     1.78800
O102        O  0.22921066  0.25188590  0.48899735    -0.92500
O103        O  0.19575565  0.42789618  0.07434942    -0.40300
O104        O  0.17415531  0.30489152  0.04857202    -0.77000
O105        O  0.13560677  0.34101921  0.04374950    -0.95700
O106        O  0.10011936  0.30252919  0.48909866    -0.89000
O107        O  0.14545779  0.26580342  0.49304459    -0.91800
C108        C  0.28024571  0.43825992  0.03058380     1.01900
C109        C  0.27239739  0.34581417  0.45147360     1.14900
C110        C  0.16902897  0.43947697  0.45137617     1.05700
O111        O  0.12612099  0.42186824  0.02506253    -0.94000
O112        O  0.07354156  0.34762092  0.03348856    -0.89700
O113        O  0.05996081  0.28837584  0.04852234    -0.82900
C114        C  0.05387427  0.31757675  0.04778053     1.12300
O115        O  0.11539444  0.25668504  0.40360683    -0.95900
Zr116      Zr  0.13517754  0.29288207  0.44954766     1.88900
O117        O  0.06779152  0.22381012  0.00357116    -0.72600
O118        O  0.07057840  0.35781593  0.47147318    -0.51800
O119        O  0.09988576  0.31710076  0.42083895    -0.96500
O120        O  0.17883564  0.28849765  0.41333936    -0.53700
O121        O  0.08900321  0.22851512  0.45660803    -0.73100
C122        C  0.06629541  0.21122718  0.47775373     0.99200
O123        O  0.09234515  0.25452614  0.08432061    -0.61900
O124        O  0.25145348  0.30612114  0.04710041    -0.56700
O125        O  0.11477016  0.21801260  0.04498522    -0.93400
O126        O  0.17297204  0.23353593  0.02994385    -0.91800
O127        O  0.23088473  0.35132400  0.09217846    -0.92200
O128        O  0.17361063  0.36513914  0.10703936    -0.91000
C129        C  0.14142180  0.20997123  0.04007709     1.18100
H130        H  0.25681188  0.36875600  0.01908489     0.34000
H131        H  0.12305805  0.34489596  0.06095930     0.44900
H132        H  0.13874900  0.23985973  0.48881708     0.38400
H133        H  0.15439873  0.36978754  0.43931636     0.34900
H134        H  0.21464488  0.43782497  0.08989413     0.26700
H135        H  0.06449630  0.37836013  0.47767823     0.32600
H136        H  0.07418956  0.30072399  0.42642335     0.38500
H137        H  0.25008805  0.37477546  0.10025142     0.33000
H138        H  0.24534238  0.28089982  0.05517262     0.31900
H139        H  0.24969431  0.25529092  0.50213760     0.33500
H140        H  0.19226817  0.27674204  0.42397587     0.32500
H141        H  0.15558523  0.33858301  0.10867660     0.36500
H142        H  0.11375045  0.25332743  0.09343767     0.29200
H143        H  0.26384231  0.45053122  0.43337501     0.33500
H144        H  0.08950758  0.25126502  0.40115412     0.36300
H145        H  0.27493707  0.31343938  0.03621991     0.28900
H146        H  0.09086857  0.27600003  0.09450109     0.41800
H147        H  0.12891230  0.41746444  0.04650237     0.31900
H148        H  0.20558166  0.44613344  0.05766532     0.39500
H149        H  0.19708786  0.31435498  0.40870006     0.31300
H150        H  0.07887472  0.36356045  0.45031841     0.31400
H151        H  0.23775069  0.41800091  0.41267144     0.31700
C152        C  0.10869842  0.10667392  0.06237444     0.03800
C153        C  0.13786701  0.10135874  0.04887795    -0.12400
C154        C  0.16393625  0.12964761  0.03042811     0.01300
C155        C  0.16056412  0.16227238  0.02608018    -0.10900
C156        C  0.13611874  0.17078429  0.04277291     0.03800
C157        C  0.10875167  0.14226279  0.06004769    -0.10300
H158        H  0.14008638  0.07555557  0.05250990     0.09300
H159        H  0.17996023  0.18316449  0.01115152     0.06900
H160        H  0.08808794  0.14770627  0.07171104     0.06700
C161        C  0.12999536  0.00245012  0.42202652     0.03800
C162        C  0.13290414  0.47001563  0.42833292    -0.12400
C163        C  0.16697995  0.47121902  0.43532668     0.01300
C164        C  0.19765704  0.50532288  0.43367675    -0.10900
C165        C  0.19532809  0.03861576  0.43078401     0.03800
C166        C  0.16106696  0.03738596  0.42417764    -0.10300
H167        H  0.10869780  0.44349163  0.42883445     0.09300
H168        H  0.22362555  0.50559718  0.43855853     0.06900
H169        H  0.15817107  0.06308226  0.42246863     0.06700
C170        C  0.48873462  0.35361055  0.07792291     0.03800
C171        C  0.02105523  0.35097069  0.07183000    -0.12400
C172        C  0.02139512  0.31709937  0.06284611     0.01300
C173        C  0.48948850  0.28529169  0.06203054    -0.10900
C174        C  0.45612380  0.28673360  0.06641540     0.01000
C175        C  0.45584415  0.32096677  0.07500280    -0.10300
H176        H  0.04635740  0.37640728  0.07247354     0.09300
H177        H  0.48995933  0.25985656  0.05369036     0.06900
H178        H  0.43018151  0.32258889  0.07793062     0.06700
C179        C  0.50190958  0.11556605  0.44318797     0.03800
C180        C  0.46869950  0.11697596  0.45001662    -0.12400
C181        C  0.46836582  0.14663453  0.46711431     0.01300
C182        C  0.50076595  0.17463019  0.47738268    -0.10900
C183        C  0.03432518  0.17592746  0.47035653     0.03800
C184        C  0.03546676  0.14639348  0.45302308    -0.10300
H185        H  0.44323528  0.09496674  0.44236725     0.09300
H186        H  0.49914653  0.19819567  0.99215188     0.06900
H187        H  0.06147829  0.14742220  0.44621487     0.06700
C188        C  0.37614174  0.49386538  0.06136140     0.03800
C189        C  0.34231813  0.46324703  0.05514450    -0.12400
C190        C  0.31665435  0.46840120  0.03723761     0.01300
C191        C  0.32502268  0.50376602  0.02611354    -0.10900
C192        C  0.35642543  0.03590526  0.03523705     0.03800
C193        C  0.38258522  0.03096291  0.05216497    -0.10300
H194        H  0.33628760  0.43568167  0.06370218     0.09300
H195        H  0.30497631  0.50756681  0.01284877     0.06900
H196        H  0.40761085  0.05497731  0.05801083     0.06700
Zr197      Zr  0.26901465  0.09739672  0.21733437     2.17500
O198        O  0.23148382  0.06067689  0.17624194    -0.50700
O199        O  0.22577112  0.05581451  0.25511814    -0.73900
O200        O  0.28738985  0.04766469  0.19959648    -0.80700
O201        O  0.23521561  0.16904479  0.21259317    -0.82400
O202        O  0.34635635  0.06424892  0.21176840    -0.78100
O203        O  0.21688623  0.10797937  0.20112373    -0.89700
O204        O  0.22895084  0.08770473  0.29822385    -0.75700
O205        O  0.29885400  0.09069173  0.26072325    -0.85100
O206        O  0.26298804  0.13677347  0.25562808    -0.84800
O207        O  0.33158998  0.12164622  0.20138078    -0.71600
O208        O  0.29652459  0.16105179  0.19829380    -0.83700
Zr209      Zr  0.38537044  0.21233567  0.26709543     2.26400
Zr210      Zr  0.36129218  0.11431663  0.24500848     2.06300
Zr211      Zr  0.29243857  0.19922343  0.23830639     2.10000
Zr212      Zr  0.29229879  0.12996347  0.29894846     1.78800
O213        O  0.29345745  0.24568267  0.20251020    -0.92500
O214        O  0.28866569  0.07589668  0.32689188    -0.40300
O215        O  0.32254514  0.19297178  0.28186814    -0.77000
O216        O  0.35477533  0.14986929  0.28610524    -0.95700
O217        O  0.39159404  0.17670831  0.22651815    -0.89000
O218        O  0.35464341  0.22150184  0.22473067    -0.91800
C219        C  0.21381945  0.05931907  0.28139680     1.01900
C220        C  0.21159144  0.13755881  0.20248807     1.14900
C221        C  0.31703645  0.04297582  0.19900234     1.05700
O222        O  0.35145478  0.05628141  0.26992152    -0.94000
O223        O  0.40706936  0.12582031  0.28056307    -0.89700
O224        O  0.42771385  0.18821783  0.28800682    -0.82900
C225        C  0.42972484  0.15672262  0.29132437     1.12300
O226        O  0.34424608  0.15384071  0.13602272    -0.95900
Zr227      Zr  0.35960001  0.18457566  0.18466205     1.88900
O228        O  0.42968047  0.25480117  0.23115212    -0.72600
O229        O  0.41827027  0.12419494  0.21980348    -0.51800
O230        O  0.40928245  0.17522543  0.16108990    -0.96500
O231        O  0.34176639  0.22150071  0.15100921    -0.53700
O232        O  0.40979966  0.24545969  0.18305182    -0.73100
C233        C  0.43250060  0.26360631  0.20319145     0.99200
O234        O  0.42614478  0.25388182  0.30457120    -0.61900
O235        O  0.24694875  0.20814802  0.26897269    -0.56700
O236        O  0.37570539  0.26426287  0.28810259    -0.93400
O237        O  0.32281652  0.25639294  0.26670465    -0.91800
O238        O  0.26237096  0.15925590  0.32992608    -0.92200
O239        O  0.31718220  0.14608619  0.34904715    -0.91000
C240        C  0.35039718  0.27440587  0.28348250     1.18100
H241        H  0.23773684  0.13098045  0.25942689     0.34000
H242        H  0.36528576  0.14671735  0.30445080     0.44900
H243        H  0.36378065  0.24760931  0.21951964     0.38400
H244        H  0.33438285  0.10877209  0.18388406     0.34900
H245        H  0.27105160  0.07253846  0.34349168     0.26700
H246        H  0.42295171  0.10298328  0.22633005     0.32600
H247        H  0.43037034  0.18795090  0.17436177     0.38500
H248        H  0.24594259  0.13923344  0.34364831     0.33000
H249        H  0.22448540  0.18432350  0.26796290     0.31900
H250        H  0.31177784  0.26994579  0.21016043     0.33500
H251        H  0.36252506  0.23331630  0.13670520     0.32500
H252        H  0.33873299  0.17050644  0.34640448     0.36500
H253        H  0.42257496  0.23822859  0.32265031     0.29200
H254        H  0.22162118  0.03427180  0.18284885     0.33500
H255        H  0.36024406  0.17271523  0.12133349     0.36300
H256        H  0.25521258  0.20909427  0.28982668     0.28900
H257        H  0.45111771  0.25989617  0.29717630     0.41800
H258        H  0.34000636  0.05708726  0.28950035     0.31900
H259        H  0.27574979  0.05417663  0.31363954     0.39500
H260        H  0.34256294  0.24251002  0.16342886     0.31300
H261        H  0.41212991  0.11922683  0.19834356     0.31400
H262        H  0.24882864  0.06306995  0.15966375     0.31700
C263        C  0.37938504  0.37290025  0.31599481     0.03800
C264        C  0.38214770  0.33993784  0.30712689    -0.12400
C265        C  0.35074185  0.30822636  0.29825186     0.01300
C266        C  0.31720046  0.30940214  0.30043452    -0.10900
C267        C  0.31436599  0.34279984  0.30460069     0.03800
C268        C  0.34562399  0.37469970  0.31345167    -0.10300
H269        H  0.40836591  0.33923578  0.30678501     0.09300
H270        H  0.29279286  0.28398800  0.29612412     0.06900
H271        H  0.34390565  0.40065509  0.31797356     0.06700
Zr272      Zr  0.10388609  0.26732631  0.23563079     2.17500
O273        O  0.05840982  0.23117902  0.19875114    -0.50700
O274        O  0.06053134  0.22425955  0.27158813    -0.73900
O275        O  0.11334347  0.21474735  0.21430923    -0.80700
O276        O  0.08145716  0.35392568  0.22638020    -0.82400
O277        O  0.16561027  0.22148060  0.23605429    -0.78100
O278        O  0.06423741  0.29316774  0.21369295    -0.89700
O279        O  0.08314274  0.23014810  0.31858954    -0.75700
O280        O  0.13602173  0.25732835  0.27613421    -0.85100
O281        O  0.09756499  0.30066081  0.27821775    -0.84800
O282        O  0.16606869  0.29003117  0.21779348    -0.71600
O283        O  0.13069333  0.33132443  0.22070100    -0.83700
Zr284      Zr  0.22006593  0.38072602  0.28668866     2.26400
Zr285      Zr  0.19768185  0.28165801  0.25982869     2.06300
Zr286      Zr  0.12556797  0.36499630  0.26366894     2.10000
Zr287      Zr  0.13153517  0.29188592  0.31820923     1.78800
O288        O  0.13926865  0.42727080  0.24486636    -0.92500
O289        O  0.14855413  0.25229989  0.34965257    -0.40300
O290        O  0.15826303  0.35562115  0.30384494    -0.77000
O291        O  0.19387339  0.31618410  0.30261270    -0.95700
O292        O  0.22489831  0.34525893  0.24478479    -0.89000
O293        O  0.18788655  0.39109804  0.24623510    -0.91800
C294        C  0.05893738  0.21392182  0.29905493     1.01900
C295        C  0.06114257  0.32421186  0.21256632     1.14900
C296        C  0.13806680  0.20375640  0.21923381     1.05700
O297        O  0.20130935  0.23847815  0.29657867    -0.94000
O298        O  0.25744326  0.31312050  0.28163907    -0.89700
O299        O  0.27205104  0.37024513  0.30178968    -0.82900
C300        C  0.27916162  0.34251165  0.29582927     1.12300
O301        O  0.17080504  0.40028957  0.18938587    -0.95900
Zr302      Zr  0.19264436  0.35508094  0.20473967     1.88900
O303        O  0.26399831  0.42177267  0.24984220    -0.72600
O304        O  0.23862056  0.27055784  0.22518249    -0.51800
O305        O  0.18091828  0.31765856  0.15913745    -0.96500
O306        O  0.22381585  0.38916561  0.15941360    -0.53700
O307        O  0.25765810  0.38200666  0.21224070    -0.73100
C308        C  0.27416234  0.41390564  0.22439777     0.99200
O309        O  0.25507074  0.41474862  0.32976677    -0.61900
O310        O  0.07043649  0.36355362  0.28706024    -0.56700
O311        O  0.20106327  0.42982266  0.30231523    -0.93400
O312        O  0.14121463  0.39730563  0.31012740    -0.91800
O313        O  0.08324555  0.30072387  0.34481609    -0.92200
O314        O  0.15023155  0.32191305  0.36669536    -0.91000
C315        C  0.16961407  0.42804118  0.31002630     1.18100
H316        H  0.07228595  0.29266733  0.28383347     0.34000
H317        H  0.20780744  0.31351105  0.31889343     0.44900
H318        H  0.19758919  0.41741711  0.24156268     0.38400
H319        H  0.16791051  0.27551016  0.20105697     0.34900
H320        H  0.14590701  0.23096638  0.33675838     0.26700
H321        H  0.22794880  0.26906470  0.20515896     0.32600
H322        H  0.20263618  0.31293523  0.15622460     0.38500
H323        H  0.06432824  0.27525028  0.34961990     0.33000
H324        H  0.06732002  0.38455637  0.27792700     0.31900
H325        H  0.12142363  0.43425503  0.25505050     0.33500
H326        H  0.24470699  0.38319804  0.15605285     0.32500
H327        H  0.17442383  0.34307295  0.36282428     0.36500
H328        H  0.26459986  0.44153869  0.32441915     0.29200
H329        H  0.04785276  0.20487438  0.20570510     0.33500
H330        H  0.15134236  0.38660599  0.17489198     0.36300
H331        H  0.04994518  0.34078707  0.27937342     0.28900
H332        H  0.23668862  0.41068891  0.34586291     0.41800
H333        H  0.17867534  0.21509686  0.29411672     0.31900
H334        H  0.17509064  0.26629040  0.35271284     0.39500
H335        H  0.23511790  0.41589640  0.16513610     0.31300
H336        H  0.26109113  0.29441760  0.22467448     0.31400
H337        H  0.07228713  0.23181607  0.18014597     0.31700
C338        C  0.12568718  0.99415610  0.32098511     0.03800
C339        C  0.13146444  0.46224726  0.32380940    -0.12400
C340        C  0.16422881  0.46234133  0.31243266     0.01300
C341        C  0.19130258  0.99572555  0.29847787    -0.10900
C342        C  0.18448696  0.02668295  0.29518653     0.03800
C343        C  0.15232240  0.02664955  0.30718005    -0.10300
H344        H  0.11104686  0.43740437  0.33465534     0.09300
H345        H  0.21399960  0.49393205  0.28780695     0.06900
H346        H  0.14779727  0.05140909  0.30519992     0.06700
C347        C  0.49264556  0.11969629  0.32503524     0.03800
C348        C  0.46013052  0.12196758  0.31781188    -0.12400
C349        C  0.46125491  0.15559133  0.30607515     0.01300
C350        C  0.49463499  0.18632258  0.30213888    -0.10900
C351        C  0.02540299  0.18299365  0.30902410     0.03800
C352        C  0.02462076  0.15058647  0.32189556    -0.10300
H353        H  0.43428144  0.09739304  0.32029102     0.09300
H354        H  0.49592513  0.21170394  0.29214800     0.06900
H355        H  0.04992220  0.14917242  0.32667243     0.06700
C356        C  0.49804358  0.36099602  0.17946949     0.03800
C357        C  0.03049217  0.35921992  0.18714928    -0.12400
C358        C  0.03019697  0.32530429  0.19705466     0.01300
C359        C  0.49805753  0.29390831  0.19869568    -0.10900
C360        C  0.46544368  0.29564652  0.19367714     0.03800
C361        C  0.46510668  0.32870319  0.18334063    -0.10300
H362        H  0.05580674  0.38463737  0.18646042     0.09300
H363        H  0.49737366  0.26824378  0.20754484     0.06900
H364        H  0.43937533  0.32967933  0.17963447     0.06700
C365        C  0.11014264  0.10630744  0.18408126     0.03800
C366        C  0.14428729  0.10494281  0.18571720    -0.12400
C367        C  0.17551346  0.13673257  0.19496593     0.01300
C368        C  0.17171627  0.16933919  0.20136161    -0.10900
C369        C  0.13789469  0.16998785  0.20413550     0.03800
C370        C  0.10684573  0.13852403  0.19440733    -0.10300
H371        H  0.14641430  0.07951977  0.17984065     0.09300
H372        H  0.19570089  0.19474562  0.20644640     0.06900
H373        H  0.08047905  0.13889113  0.19505449     0.06700
C374        C  0.35915736  0.47735947  0.17973723     0.03800
C375        C  0.35172548  0.01142249  0.17457553    -0.12400
C376        C  0.31839384  0.00944143  0.18648264     0.01300
C377        C  0.29303136  0.47471893  0.20221908    -0.10900
C378        C  0.30088068  0.44443495  0.20637519     0.03800
C379        C  0.33339429  0.44495987  0.19446152    -0.10300
H380        H  0.37241799  0.03792716  0.16624473     0.09300
H381        H  0.26845319  0.47429190  0.21233687     0.06900
H382        H  0.33911698  0.42110191  0.19762540     0.06700
C383        C  0.49257605  0.48690035  0.09699787     0.46100
H384        H  0.49312380  0.48652323  0.07207749    -0.02900
C385        C  0.49086179  0.48729723  0.15566735     0.46100
H386        H  0.49017745  0.48728517  0.18058945    -0.02900
C387        C  0.45784198  0.48777351  0.11057388    -0.16600
C388        C  0.49342687  0.45197022  0.11138151    -0.16400
C389        C  0.02552795  0.02131571  0.11047102    -0.16800
C390        C  0.45639481  0.48736475  0.14135204    -0.16700
C391        C  0.49337029  0.45266045  0.14207580    -0.16300
C392        C  0.02450828  0.02136332  0.14131938    -0.16600
C393        C  0.42358519  0.48371060  0.15817805    -0.12600
C394        C  0.39441909  0.48012004  0.16885553    -0.14200
C395        C  0.05318661  0.04997596  0.15909569    -0.12600
C396        C  0.07864151  0.07494656  0.17155975    -0.14200
C397        C  0.49555493  0.42283102  0.15956250    -0.12600
C398        C  0.49746818  0.39556629  0.16983626    -0.14200
C399        C  0.42850850  0.48771526  0.09231241    -0.12600
C400        C  0.40395645  0.48911388  0.07823191    -0.14200
C401        C  0.49141405  0.41926771  0.09483161    -0.12600
C402        C  0.48925689  0.38944122  0.08585990    -0.14200
C403        C  0.07933317  0.07614214  0.07893444    -0.12600
C404        C  0.05461844  0.05081086  0.09260004    -0.14200
C405        C  0.40238570  0.39781986  0.41351860    -0.12600
C406        C  0.43093381  0.42451059  0.40537610    -0.14200
C407        C  0.49830654  0.05558993  0.41269424    -0.12600
C408        C  0.50120984  0.08315936  0.42682313    -0.14200
C409        C  0.09394987  0.99949710  0.41545871    -0.12600
C410        C  0.06314506  0.49478208  0.40727095    -0.14200
C411        C  0.41095646  0.40470693  0.32777530    -0.12600
C412        C  0.43606451  0.43001538  0.34021569    -0.14200
C413        C  0.49225058  0.08520186  0.33636948    -0.12600
C414        C  0.99265660  0.05756765  0.34858675    -0.14200
C415        C  0.06312255  0.99267589  0.34271302    -0.12600
C416        C  0.09118900  0.99327618  0.33201893    -0.14200
C417        C  0.99688307  0.99186031  0.84679859     0.46100
H418        H  0.99736626  0.99386840  0.82193266    -0.02900
C419        C  0.49550727  0.48766427  0.90542423     0.46100
H420        H  0.49510393  0.48573881  0.93028306    -0.02900
C421        C  0.03116021  0.99010220  0.85960373    -0.16600
C422        C  0.99460252  0.02551647  0.86293068    -0.16400
C423        C  0.46454371  0.45716669  0.85924722    -0.16800
C424        C  0.03037180  0.48899101  0.89034040    -0.16700
C425        C  0.49446009  0.02493645  0.89470944    -0.16300
C426        C  0.46300955  0.45431022  0.88998579    -0.16600
Zr427      Zr  0.38067798  0.16267379  0.52962959     2.17500
O428        O  0.40967320  0.16232402  0.57690645    -0.50700
O429        O  0.43010579  0.15924406  0.50051140    -0.73900
O430        O  0.37314040  0.10027976  0.54228588    -0.80700
O431        O  0.39811680  0.26337248  0.54402203    -0.82400
O432        O  0.34820538  0.07344546  0.49893048    -0.78100
O433        O  0.42274148  0.22278758  0.55020450    -0.89700
O434        O  0.41372964  0.14912504  0.95381406    -0.75700
O435        O  0.36071488  0.13072981  0.98539236    -0.85100
O436        O  0.39007561  0.20874779  0.99324407    -0.84800
O437        O  0.31720815  0.12037903  0.53778917    -0.71600
O438        O  0.34336534  0.19273239  0.54508252    -0.83700
Zr439      Zr  0.27003350  0.16547605  0.96544891     2.26400
Zr440      Zr  0.29813516  0.09060033  0.99217110     2.06300
Zr441      Zr  0.35196199  0.23735604  0.50665221     2.10000
Zr442      Zr  0.37062573  0.17474496  0.94722084     1.78800
O443        O  0.32128583  0.26971487  0.53290716    -0.92500
O444        O  0.36134736  0.13335503  0.90445321    -0.40300
O445        O  0.33364332  0.20438176  0.96091684    -0.77000
O446        O  0.30658340  0.13348494  0.95152483    -0.95700
O447        O  0.26214515  0.12037279  0.50288510    -0.89000
O448        O  0.28791663  0.19732906  0.51195693    -0.91800
C449        C  0.43435938  0.15176640  0.97581182     1.01900
C450        C  0.42285413  0.25499273  0.55355793     1.14900
C451        C  0.36055343  0.07204548  0.52473422     1.05700
O452        O  0.29229615  0.03607670  0.96326859    -0.94000
O453        O  0.24636506  0.06460698  0.96087963    -0.89700
O454        O  0.22910425  0.10623212  0.94066595    -0.82900
C455        C  0.22541332  0.07262000  0.94454738     1.12300
O456        O  0.29624635  0.17218494  0.60103209    -0.95900
Zr457      Zr  0.27959915  0.15110268  0.54966702     1.88900
O458        O  0.21494036  0.15149360  0.99648993    -0.72600
O459        O  0.26217210  0.04250326  0.52583747    -0.51800
O460        O  0.25821080  0.09561025  0.58154124    -0.96500
O461        O  0.25105157  0.18626360  0.57529428    -0.53700
O462        O  0.21606246  0.11853192  0.53698261    -0.73100
C463        C  0.20020968  0.13196778  0.51973726     0.99200
O464        O  0.23533426  0.17175993  0.92365779    -0.61900
O465        O  0.39155890  0.30453600  0.99840220    -0.56700
O466        O  0.29292899  0.23242327  0.94646709    -0.93400
O467        O  0.35242838  0.26352797  0.95786232    -0.91800
O468        O  0.42767602  0.22956906  0.93619072    -0.92200
O469        O  0.37164324  0.20565631  0.89997599    -0.91000
C470        C  0.32441189  0.26197128  0.94467074     1.18100
H471        H  0.41541128  0.22668548  0.99227814     0.34000
H472        H  0.29856715  0.12037983  0.93280550     0.44900
H473        H  0.27370683  0.21087579  0.51585724     0.38400
H474        H  0.31446036  0.10233259  0.55318044     0.34900
H475        H  0.38588497  0.14151181  0.89522197     0.26700
H476        H  0.24373547  0.05062392  0.53308447     0.32600
H477        H  0.23243569  0.08945637  0.58631301     0.38500
H478        H  0.44470579  0.21941066  0.92928939     0.33000
H479        H  0.39197630  0.31750177  0.01751751     0.31900
H480        H  0.31839618  0.28585417  0.51737285     0.33500
H481        H  0.22841187  0.16695111  0.58453048     0.32500
H482        H  0.34872466  0.20846889  0.90019125     0.36500
H483        H  0.22718727  0.19081619  0.92997426     0.29200
H484        H  0.42871424  0.15415591  0.57160877     0.33500
H485        H  0.27680453  0.15404653  0.61419419     0.36300
H486        H  0.41649895  0.30658067  0.99576259     0.28900
H487        H  0.25336399  0.18366601  0.90724643     0.41800
H488        H  0.27210033  0.01425578  0.97282937     0.31900
H489        H  0.35563627  0.10865404  0.91343296     0.39500
H490        H  0.24231277  0.19757819  0.55953975     0.31300
H491        H  0.24809174  0.02014439  0.51354653     0.31400
H492        H  0.39129099  0.14138150  0.58877247     0.31700
C493        C  0.36740775  0.36534785  0.92135263     0.03800
C494        C  0.33664424  0.37198692  0.92783583    -0.12400
C495        C  0.30242504  0.34177700  0.93454726     0.01300
C496        C  0.29839753  0.30502168  0.93190296    -0.10900
C497        C  0.32860043  0.29773887  0.93051841     0.03800
C498        C  0.36333780  0.32810892  0.92417049    -0.10300
H499        H  0.33980506  0.40042192  0.92937653     0.09300
H500        H  0.27198157  0.28191931  0.93658865     0.06900
H501        H  0.38730185  0.32304670  0.92273502     0.06700
Zr502      Zr  0.21967694  0.38909317  0.97236413     2.17500
O503        O  0.25625078  0.42504684  0.92967720    -0.50700
O504        O  0.26929627  0.43448361  0.00318968    -0.73900
O505        O  0.19826089  0.43501741  0.95236338    -0.80700
O506        O  0.25634371  0.31977241  0.97108263    -0.82400
O507        O  0.13843698  0.41618806  0.96411175    -0.78100
O508        O  0.26491861  0.37323352  0.94713864    -0.89700
O509        O  0.26127803  0.41875487  0.55278798    -0.75700
O510        O  0.18741589  0.40024380  0.51366449    -0.85100
O511        O  0.23134732  0.36105097  0.51609796    -0.84800
O512        O  0.15691838  0.35785101  0.95710985    -0.71600
O513        O  0.19750577  0.32267735  0.96329401    -0.83700
Zr514      Zr  0.11136445  0.27606918  0.53325810     2.26400
Zr515      Zr  0.12477379  0.36801831  0.49968956     2.06300
Zr516      Zr  0.20728486  0.29542937  0.00782117     2.10000
Zr517      Zr  0.19875808  0.37154116  0.55676609     1.78800
O518        O  0.22801441  0.25022660  0.98927927    -0.92500
O519        O  0.19576950  0.42741343  0.57653498    -0.40300
O520        O  0.17418063  0.30520617  0.54880142    -0.77000
O521        O  0.13572203  0.34164561  0.54414838    -0.95700
O522        O  0.09983825  0.30160048  0.98868885    -0.89000
O523        O  0.14586896  0.26539202  0.99283134    -0.91800
C524        C  0.28032126  0.43904295  0.53093322     1.01900
C525        C  0.27289386  0.34585365  0.95175058     1.14900
C526        C  0.16800293  0.43833578  0.95105277     1.05700
O527        O  0.12690575  0.42203939  0.52708755    -0.94000
O528        O  0.07316520  0.34818674  0.53272388    -0.89700
O529        O  0.06005237  0.28935687  0.54858749    -0.82900
C530        C  0.05367976  0.31834493  0.54729521     1.12300
O531        O  0.11680428  0.25203356  0.90518065    -0.95900
Zr532      Zr  0.13505863  0.29204940  0.94926087     1.88900
O533        O  0.06730910  0.22440101  0.50435280    -0.72600
O534        O  0.06811016  0.35364058  0.97268979    -0.51800
O535        O  0.09597466  0.31358643  0.92294160    -0.96500
O536        O  0.17876584  0.29587774  0.90970993    -0.53700
O537        O  0.09030392  0.22704362  0.95617245    -0.73100
C538        C  0.06714858  0.21018380  0.97717280     0.99200
O539        O  0.09120125  0.25465381  0.58448428    -0.61900
O540        O  0.25090997  0.30660418  0.54737778    -0.56700
O541        O  0.11528958  0.21863892  0.54544951    -0.93400
O542        O  0.17291326  0.23376835  0.52905877    -0.91800
O543        O  0.23156950  0.35174672  0.59222448    -0.92200
O544        O  0.17375605  0.36492327  0.60753818    -0.91000
C545        C  0.14166216  0.21033690  0.53971586     1.18100
H546        H  0.25699751  0.36921406  0.51940605     0.34000
H547        H  0.12303673  0.34560113  0.56123820     0.44900
H548        H  0.13943123  0.23946046  0.98881311     0.38400
H549        H  0.15358211  0.36852022  0.93872329     0.34900
H550        H  0.21573103  0.43772828  0.59116467     0.26700
H551        H  0.06070041  0.37295620  0.97977029     0.32600
H552        H  0.07087291  0.29468592  0.92779932     0.38500
H553        H  0.25155944  0.37517799  0.59951747     0.33000
H554        H  0.24519842  0.28132947  0.55512581     0.31900
H555        H  0.25275584  0.25854347  0.99738122     0.33500
H556        H  0.19312998  0.28337030  0.91759869     0.32500
H557        H  0.15603232  0.33825315  0.60913555     0.36500
H558        H  0.11268619  0.25414326  0.59403782     0.29200
H559        H  0.26493420  0.45163750  0.93535238     0.33500
H560        H  0.09491611  0.25362762  0.89755329     0.36300
H561        H  0.27461732  0.31464543  0.53670169     0.28900
H562        H  0.08874366  0.27569636  0.59453219     0.41800
H563        H  0.10445427  0.42396087  0.52142165     0.31900
H564        H  0.20404511  0.44566327  0.55979795     0.39500
H565        H  0.19620076  0.32260888  0.90760098     0.31300
H566        H  0.07567539  0.36038964  0.95150773     0.31400
H567        H  0.23877366  0.42095032  0.91335193     0.31700
C568        C  0.10942477  0.10703993  0.56186583     0.03800
C569        C  0.13877153  0.10193407  0.54852698    -0.12400
C570        C  0.16482777  0.13028777  0.53013805     0.01300
C571        C  0.16117146  0.16276104  0.52561703    -0.10900
C572        C  0.13650948  0.17113036  0.54224680     0.03800
C573        C  0.10926662  0.14252714  0.55953370    -0.10300
H574        H  0.14109270  0.07618680  0.55217989     0.09300
H575        H  0.18057266  0.18366928  0.51069958     0.06900
H576        H  0.08847675  0.14780308  0.57115458     0.06700
C577        C  0.12983736  0.00244627  0.92204097     0.03800
C578        C  0.13232874  0.46982923  0.92868607    -0.12400
C579        C  0.16624963  0.47067172  0.93562469     0.01300
C580        C  0.19707996  0.50473929  0.93423444    -0.10900
C581        C  0.19488352  0.03898298  0.93165038     0.03800
C582        C  0.16054698  0.03750176  0.92497100    -0.10300
H583        H  0.10801275  0.44339778  0.92895685     0.09300
H584        H  0.22290797  0.50470003  0.93922152     0.06900
H585        H  0.15735012  0.06306281  0.92358256     0.06700
C586        C  0.48808034  0.35270823  0.57795618     0.03800
C587        C  0.02089201  0.35166351  0.57143592    -0.12400
C588        C  0.02112727  0.31785785  0.56216427     0.01300
C589        C  0.48893798  0.28484207  0.56083312    -0.10900
C590        C  0.45557230  0.28604844  0.56575577     0.01000
C591        C  0.45521415  0.32005868  0.57492626    -0.10300
H592        H  0.04626097  0.37701260  0.57228205     0.09300
H593        H  0.48950872  0.25961160  0.55210682     0.06900
H594        H  0.42953669  0.32156474  0.57817433     0.06700
C595        C  0.50043668  0.11618276  0.94465195     0.03800
C596        C  0.46731804  0.11731853  0.95225692    -0.12400
C597        C  0.46723062  0.14692453  0.96956980     0.01300
C598        C  0.49973239  0.17510157  0.97942769    -0.10900
C599        C  0.03486163  0.17521150  0.96967710     0.03800
C600        C  0.03545337  0.14525904  0.95257977    -0.10300
H601        H  0.44173104  0.09521970  0.94491118     0.09300
H602        H  0.50003269  0.19774913  0.48995828     0.06900
H603        H  0.06126571  0.14550202  0.94619271     0.06700
C604        C  0.37563516  0.49457681  0.56243387     0.03800
C605        C  0.34205582  0.46392586  0.55582427    -0.12400
C606        C  0.31655993  0.46918856  0.53785680     0.01300
C607        C  0.32493073  0.50462510  0.52694620    -0.10900
C608        C  0.35657718  0.03542517  0.53475877     0.03800
C609        C  0.38205976  0.03085458  0.55285161    -0.10300
H610        H  0.33619498  0.43621813  0.56394943     0.09300
H611        H  0.30513672  0.50833142  0.51330060     0.06900
H612        H  0.40695463  0.05496068  0.55881185     0.06700
Zr613      Zr  0.26890043  0.09663265  0.71483790     2.17500
O614        O  0.23286070  0.06032235  0.67291020    -0.50700
O615        O  0.22392088  0.05506833  0.75157291    -0.73900
O616        O  0.28720976  0.04625645  0.69869854    -0.80700
O617        O  0.23579801  0.16911754  0.71065711    -0.82400
O618        O  0.34641363  0.06344331  0.71045373    -0.78100
O619        O  0.21810160  0.10870463  0.69725661    -0.89700
O620        O  0.22703956  0.08645936  0.79495520    -0.75700
O621        O  0.29762422  0.08932945  0.75871117    -0.85100
O622        O  0.26249982  0.13588971  0.75307616    -0.84800
O623        O  0.33177801  0.12039106  0.69996251    -0.71600
O624        O  0.29732981  0.16043108  0.69620670    -0.83700
Zr625      Zr  0.38505323  0.21096336  0.76571410     2.26400
Zr626      Zr  0.36037770  0.11273155  0.74421221     2.06300
Zr627      Zr  0.29304979  0.19859892  0.73625955     2.10000
Zr628      Zr  0.29061738  0.12836620  0.79681953     1.78800
O629        O  0.29659722  0.24553843  0.69990151    -0.92500
O630        O  0.28402732  0.07328285  0.82500269    -0.40300
O631        O  0.32208640  0.19163672  0.78022744    -0.77000
O632        O  0.35351170  0.14858148  0.78491037    -0.95700
O633        O  0.39154176  0.17498027  0.72552602    -0.89000
O634        O  0.35520826  0.22034680  0.72298483    -0.91800
C635        C  0.21178345  0.05836501  0.77781519     1.01900
C636        C  0.21264502  0.13815418  0.69943166     1.14900
C637        C  0.31691002  0.04165859  0.69820549     1.05700
O638        O  0.34845952  0.05424013  0.76939646    -0.94000
O639        O  0.40502275  0.12387215  0.78071842    -0.89700
O640        O  0.42756591  0.18678919  0.78563900    -0.82900
C641        C  0.42876855  0.15510224  0.79002890     1.12300
O642        O  0.34671629  0.15153028  0.63479624    -0.95900
Zr643      Zr  0.36050740  0.18324435  0.68316295     1.88900
O644        O  0.42980596  0.25393437  0.73009689    -0.72600
O645        O  0.41813795  0.12146863  0.72118906    -0.51800
O646        O  0.41111071  0.17507962  0.66003534    -0.96500
O647        O  0.34200912  0.21983155  0.64973932    -0.53700
O648        O  0.41068644  0.24414039  0.68177809    -0.73100
C649        C  0.43297402  0.26261088  0.70207013     0.99200
O650        O  0.42428839  0.25079863  0.80474595    -0.61900
O651        O  0.24755524  0.20963007  0.76516699    -0.56700
O652        O  0.37700271  0.26412810  0.78594076    -0.93400
O653        O  0.32353837  0.25537092  0.76530779    -0.91800
O654        O  0.26155296  0.16014557  0.82584486    -0.92200
O655        O  0.31316233  0.14014153  0.84787532    -0.91000
C656        C  0.35146900  0.27399119  0.78158562     1.18100
H657        H  0.23726775  0.13043475  0.75653432     0.34000
H658        H  0.36391166  0.14570866  0.80342778     0.44900
H659        H  0.36445297  0.24645640  0.71777350     0.38400
H660        H  0.33467308  0.10741988  0.68256189     0.34900
H661        H  0.26203318  0.06669373  0.83786625     0.26700
H662        H  0.41929051  0.09740077  0.72430719     0.32600
H663        H  0.42391895  0.19727667  0.64700583     0.38500
H664        H  0.24294409  0.14036936  0.83851078     0.33000
H665        H  0.22509019  0.18574817  0.76485281     0.31900
H666        H  0.30994347  0.26985536  0.71006259     0.33500
H667        H  0.36107033  0.22905918  0.63377241     0.32500
H668        H  0.33238073  0.16624995  0.84744455     0.36500
H669        H  0.42054891  0.23418859  0.82222701     0.29200
H670        H  0.22440056  0.03374047  0.67855869     0.33500
H671        H  0.36091820  0.17088026  0.61975266     0.36300
H672        H  0.25571607  0.21188634  0.78616229     0.28900
H673        H  0.44954710  0.25770619  0.79762626     0.41800
H674        H  0.33881047  0.05636284  0.78947854     0.31900
H675        H  0.27663830  0.05281696  0.81013047     0.39500
H676        H  0.34590924  0.24253434  0.66130547     0.31300
H677        H  0.41460111  0.12240767  0.69935431     0.31400
H678        H  0.25068127  0.06469393  0.65629178     0.31700
C679        C  0.38093850  0.37274899  0.81437089     0.03800
C680        C  0.38348630  0.33967726  0.80535138    -0.12400
C681        C  0.35207772  0.30828306  0.79589658     0.01300
C682        C  0.31874126  0.30999233  0.79749313    -0.10900
C683        C  0.31604455  0.34342191  0.80216746     0.03800
C684        C  0.34737473  0.37497053  0.81149166    -0.10300
H685        H  0.40951527  0.33857355  0.80552730     0.09300
H686        H  0.29429692  0.28480162  0.79283520     0.06900
H687        H  0.34578303  0.40090277  0.81640290     0.06700
Zr688      Zr  0.10545643  0.26786586  0.73276848     2.17500
O689        O  0.06147662  0.23322733  0.69442562    -0.50700
O690        O  0.06161683  0.22343829  0.76776453    -0.73900
O691        O  0.11513253  0.21556152  0.71153971    -0.80700
O692        O  0.08483191  0.35514011  0.72173302    -0.82400
O693        O  0.16735476  0.22209362  0.73338411    -0.78100
O694        O  0.06513758  0.29336328  0.71159309    -0.89700
O695        O  0.08383997  0.22875527  0.81484632    -0.75700
O696        O  0.13650150  0.25722637  0.77379499    -0.85100
O697        O  0.09812374  0.30077444  0.77511884    -0.84800
O698        O  0.16808455  0.29046286  0.71616931    -0.71600
O699        O  0.13299067  0.33200381  0.71806301    -0.83700
Zr700      Zr  0.22062440  0.38076568  0.78585708     2.26400
Zr701      Zr  0.19862642  0.28161234  0.75865862     2.06300
Zr702      Zr  0.12668359  0.36521710  0.76087403     2.10000
Zr703      Zr  0.13094145  0.29136570  0.81567627     1.78800
O704        O  0.14049264  0.42813018  0.74355668    -0.92500
O705        O  0.14878219  0.25343100  0.84825604    -0.40300
O706        O  0.15827677  0.35526892  0.80163809    -0.77000
O707        O  0.19385812  0.31597141  0.80130894    -0.95700
O708        O  0.22636407  0.34540246  0.74420086    -0.89000
O709        O  0.18939447  0.39126849  0.74460320    -0.91800
C710        C  0.05987981  0.21255302  0.79509314     1.01900
C711        C  0.06303109  0.32484045  0.70941221     1.14900
C712        C  0.13986616  0.20459064  0.71639837     1.05700
O713        O  0.20108043  0.23771993  0.79532743    -0.94000
O714        O  0.25840058  0.31361666  0.78034951    -0.89700
O715        O  0.27364468  0.37114095  0.79987687    -0.82900
C716        C  0.28058883  0.34324266  0.79399802     1.12300
O717        O  0.17508561  0.40105123  0.68587610    -0.95900
Zr718      Zr  0.19540684  0.35552973  0.70339272     1.88900
O719        O  0.26498049  0.42328196  0.75008432    -0.72600
O720        O  0.24113970  0.27198769  0.72475153    -0.51800
O721        O  0.18462174  0.31769487  0.65806967    -0.96500
O722        O  0.22921976  0.38777469  0.65834013    -0.53700
O723        O  0.25994906  0.38297841  0.71337746    -0.73100
C724        C  0.27555105  0.41537169  0.72486734     0.99200
O725        O  0.25175796  0.41259221  0.83110875    -0.61900
O726        O  0.07018905  0.36189734  0.78299637    -0.56700
O727        O  0.20153137  0.43000343  0.80062362    -0.93400
O728        O  0.14163971  0.39696875  0.80765203    -0.91800
O729        O  0.07987309  0.29763898  0.83974638    -0.92200
O730        O  0.14459920  0.32005843  0.86501820    -0.91000
C731        C  0.16985187  0.42785976  0.80795109     1.18100
H732        H  0.07268319  0.29265346  0.78019592     0.34000
H733        H  0.20755042  0.31321356  0.81773788     0.44900
H734        H  0.19905834  0.41756699  0.73986317     0.38400
H735        H  0.17028797  0.27599510  0.69955993     0.34900
H736        H  0.14844159  0.23297816  0.83535252     0.26700
H737        H  0.22976256  0.26802166  0.70480474     0.32600
H738        H  0.20580819  0.31190874  0.65613892     0.38500
H739        H  0.06584917  0.27361741  0.85034407     0.33000
H740        H  0.06814894  0.38419795  0.77537688     0.31900
H741        H  0.11694940  0.42965079  0.74433545     0.33500
H742        H  0.25012233  0.38154015  0.65648227     0.32500
H743        H  0.16646588  0.34409298  0.86179223     0.36500
H744        H  0.26337398  0.43953526  0.82593838     0.29200
H745        H  0.05016219  0.20677772  0.70105946     0.33500
H746        H  0.15673537  0.38754630  0.67050799     0.36300
H747        H  0.05013834  0.34045762  0.77331514     0.28900
H748        H  0.23204815  0.40955662  0.84566863     0.41800
H749        H  0.17954152  0.21382821  0.79127711     0.31900
H750        H  0.17481771  0.26869207  0.85269299     0.39500
H751        H  0.24034768  0.41472277  0.66333812     0.31300
H752        H  0.26235007  0.29681726  0.72306415     0.31400
H753        H  0.07609321  0.23393291  0.67627081     0.31700
C754        C  0.12435149  0.99337470  0.81846200     0.03800
C755        C  0.13094231  0.46128568  0.82156270    -0.12400
C756        C  0.16407250  0.46190638  0.81056032     0.01300
C757        C  0.18982170  0.99515623  0.79554349    -0.10900
C758        C  0.18235403  0.02559352  0.79141580     0.03800
C759        C  0.15015263  0.02541597  0.80349548    -0.10300
H760        H  0.11047133  0.43616203  0.83202767     0.09300
H761        H  0.21444189  0.49440890  0.78704198     0.06900
H762        H  0.14515451  0.04983125  0.80102714     0.06700
C763        C  0.49200588  0.11902324  0.82449966     0.03800
C764        C  0.45948799  0.12084230  0.81666232    -0.12400
C765        C  0.46054501  0.15411683  0.80433938     0.01300
C766        C  0.49385756  0.18488045  0.80017658    -0.10900
C767        C  0.02628431  0.18133268  0.80481100     0.03800
C768        C  0.02543109  0.14923109  0.81839978    -0.10300
H769        H  0.43368127  0.09626003  0.81937265     0.09300
H770        H  0.49509130  0.21003752  0.78980271     0.06900
H771        H  0.05070211  0.14772992  0.82312401     0.06700
C772        C  0.49765700  0.36040819  0.67827529     0.03800
C773        C  0.03147792  0.35975812  0.68520260    -0.12400
C774        C  0.03139668  0.32586187  0.69492127     0.01300
C775        C  0.49859452  0.29374264  0.69743780    -0.10900
C776        C  0.46572950  0.29500735  0.69261817     0.03800
C777        C  0.46493678  0.32787787  0.68231627    -0.10300
H778        H  0.05688370  0.38501091  0.68363082     0.09300
H779        H  0.49826063  0.26825253  0.70633128     0.06900
H780        H  0.43902870  0.32854403  0.67881155     0.06700
C781        C  0.11121964  0.10696003  0.68184554     0.03800
C782        C  0.14539645  0.10565343  0.68296071    -0.12400
C783        C  0.17685410  0.13764283  0.69150241     0.01300
C784        C  0.17333292  0.17051947  0.69739784    -0.10900
C785        C  0.13954228  0.17101979  0.70098234     0.03800
C786        C  0.10818981  0.13931443  0.69209131    -0.10300
H787        H  0.14732411  0.08003844  0.67742999     0.09300
H788        H  0.19745138  0.19606356  0.70194714     0.06900
H789        H  0.08179775  0.13959372  0.69336561     0.06700
C790        C  0.35914972  0.47853331  0.67864212     0.03800
C791        C  0.35155601  0.00937316  0.67519173    -0.12400
C792        C  0.31817972  0.00770548  0.68661789     0.01300
C793        C  0.29304602  0.47563000  0.70161819    -0.10900
C794        C  0.30159821  0.44586508  0.70635131     0.03800
C795        C  0.33409073  0.44656867  0.69424850    -0.10300
H796        H  0.37228614  0.03563648  0.66648929     0.09300
H797        H  0.26855151  0.47512294  0.71195481     0.06900
H798        H  0.34034234  0.42313336  0.69790395     0.06700
C799        C  0.49236321  0.48631190  0.59630696     0.46100
H800        H  0.49283362  0.48573168  0.57138776    -0.02900
C801        C  0.49068906  0.48719563  0.65498622     0.46100
H802        H  0.49003198  0.48739984  0.67990387    -0.02900
C803        C  0.45774041  0.48742954  0.60985844    -0.16600
C804        C  0.49310083  0.45143918  0.61093421    -0.16400
C805        C  0.02583124  0.02157392  0.60943167    -0.16800
C806        C  0.45630359  0.48735570  0.64060956    -0.16700
C807        C  0.49299740  0.45235153  0.64161359    -0.16300
C808        C  0.02499315  0.02157745  0.64026736    -0.16600
C809        C  0.42361488  0.48444241  0.65730135    -0.12600
C810        C  0.39448570  0.48133981  0.66776012    -0.14200
C811        C  0.05377134  0.05021710  0.65791651    -0.12600
C812        C  0.07941137  0.07535818  0.67002261    -0.14200
C813        C  0.49481479  0.42240489  0.65919832    -0.12600
C814        C  0.49664771  0.39494033  0.66912453    -0.14200
C815        C  0.42852812  0.48764229  0.59173456    -0.12600
C816        C  0.40375013  0.48945288  0.57838961    -0.14200
C817        C  0.49086309  0.41846693  0.59466666    -0.12600
C818        C  0.48857281  0.38849278  0.58595951    -0.14200
C819        C  0.07995943  0.07633266  0.57815184    -0.12600
C820        C  0.05504616  0.05095504  0.59158785    -0.14200
C821        C  0.40323257  0.39692365  0.91390303    -0.12600
C822        C  0.43174077  0.42344351  0.90549787    -0.14200
C823        C  0.49688934  0.05628819  0.91388489    -0.12600
C824        C  0.49956279  0.08381430  0.92802553    -0.14200
C825        C  0.09382667  0.99924468  0.91493893    -0.12600
C826        C  0.06314496  0.49446291  0.90674265    -0.14200
C827        C  0.41235530  0.40409992  0.82702916    -0.12600
C828        C  0.43706944  0.42920388  0.84009586    -0.14200
C829        C  0.49155104  0.08491892  0.83669112    -0.12600
C830        C  0.99277152  0.05683588  0.84723328    -0.14200
C831        C  0.06231510  0.99158857  0.84148580    -0.12600
C832        C  0.09011083  0.99235466  0.83014172    -0.14200
C833        C  0.99712056  0.49359604  0.34705915     0.46100
H834        H  0.99805168  0.49592166  0.32220399    -0.02900
C835        C  0.49591749  0.98791378  0.40502168     0.46100
H836        H  0.49564418  0.98618921  0.42988565    -0.02900
C837        C  0.03128914  0.49190798  0.36022232    -0.16600
C838        C  0.99432759  0.52693828  0.36329302    -0.16400
C839        C  0.46428625  0.95763197  0.35911670    -0.16800
C840        C  0.03094165  0.98904223  0.39121556    -0.16700
C841        C  0.49476722  0.52460421  0.39329582    -0.16300
C842        C  0.46294561  0.95492129  0.38984285    -0.16600
Zr843      Zr  0.38033332  0.66196603  0.03094692     2.17500
O844        O  0.40851138  0.66157653  0.07864450    -0.50700
O845        O  0.43041046  0.65960319  0.00216794    -0.73900
O846        O  0.37342019  0.59929211  0.04202570    -0.80700
O847        O  0.39781622  0.76269312  0.04578451    -0.82400
O848        O  0.34818533  0.57293447  0.99853936    -0.78100
O849        O  0.42247539  0.72212353  0.05175575    -0.89700
O850        O  0.41281001  0.64504166  0.45517361    -0.75700
O851        O  0.36090604  0.62982002  0.48568167    -0.85100
O852        O  0.39104557  0.70792872  0.49252981    -0.84800
O853        O  0.31670164  0.61951006  0.03845200    -0.71600
O854        O  0.34289142  0.69190286  0.04626699    -0.83700
Zr855      Zr  0.27110521  0.66554478  0.46451352     2.26400
Zr856      Zr  0.29822189  0.59029925  0.49201937     2.06300
Zr857      Zr  0.35211093  0.73690888  0.00795321     2.10000
Zr858      Zr  0.37153157  0.67303219  0.44689862     1.78800
O859        O  0.32147560  0.76977737  0.03351324    -0.92500
O860        O  0.36085736  0.63044088  0.40477025    -0.40300
O861        O  0.33502790  0.70388332  0.45955883    -0.77000
O862        O  0.30723908  0.63287459  0.45113910    -0.95700
O863        O  0.26203186  0.61992068  0.00352658    -0.89000
O864        O  0.28793537  0.69702786  0.01309161    -0.91800
C865        C  0.43408668  0.64883996  0.47701185     1.01900
C866        C  0.42262640  0.75435365  0.05522942     1.14900
C867        C  0.36102595  0.57137928  0.02410006     1.05700
O868        O  0.29279271  0.53746866  0.46108199    -0.94000
O869        O  0.24496349  0.56430020  0.46231487    -0.89700
O870        O  0.23053944  0.60651419  0.43941131    -0.82900
C871        C  0.22523823  0.57266427  0.44478800     1.12300
O872        O  0.29571732  0.66967445  0.10210151    -0.95900
Zr873      Zr  0.27902986  0.65023893  0.05043237     1.88900
O874        O  0.21576265  0.65132322  0.49566823    -0.72600
O875        O  0.26210571  0.54034215  0.02484867    -0.51800
O876        O  0.25574967  0.59393807  0.08146024    -0.96500
O877        O  0.25096699  0.68657372  0.07491477    -0.53700
O878        O  0.21535257  0.61830731  0.03782261    -0.73100
C879        C  0.19967742  0.63171266  0.02035433     0.99200
O880        O  0.23573283  0.67025658  0.42261370    -0.61900
O881        O  0.39539163  0.80321946  0.49553033    -0.56700
O882        O  0.29352003  0.73237875  0.44540390    -0.93400
O883        O  0.35302358  0.76371026  0.45676271    -0.91800
O884        O  0.42968853  0.72548821  0.43394156    -0.92200
O885        O  0.37264561  0.70274167  0.39902425    -0.91000
C886        C  0.32492694  0.76202953  0.44364970     1.18100
H887        H  0.41643087  0.72573264  0.49143398     0.34000
H888        H  0.29906046  0.61947800  0.43255938     0.44900
H889        H  0.27381382  0.71064576  0.01712646     0.38400
H890        H  0.31379457  0.60122586  0.05369591     0.34900
H891        H  0.38475176  0.63941598  0.39422790     0.26700
H892        H  0.24319038  0.54768169  0.03227860     0.32600
H893        H  0.23063532  0.58941228  0.08725147     0.38500
H894        H  0.44850925  0.71855717  0.44159699     0.33000
H895        H  0.39563248  0.81732885  0.51395793     0.31900
H896        H  0.32312390  0.78932416  0.01910276     0.33500
H897        H  0.23113764  0.66831939  0.08771633     0.32500
H898        H  0.36105103  0.71957177  0.40311992     0.36500
H899        H  0.22812362  0.68989850  0.42832219     0.29200
H900        H  0.42968545  0.65675214  0.07323412     0.33500
H901        H  0.27556564  0.65201722  0.11497419     0.36300
H902        H  0.41993782  0.80398259  0.49410828     0.28900
H903        H  0.25356062  0.68119204  0.40590956     0.41800
H904        H  0.27412262  0.51496981  0.47118067     0.31900
H905        H  0.35711509  0.60642531  0.41401476     0.39500
H906        H  0.23796048  0.69311501  0.05918931     0.31300
H907        H  0.24863559  0.51844034  0.01190837     0.31400
H908        H  0.39131555  0.63864994  0.08924549     0.31700
C909        C  0.36767079  0.86579496  0.42135155     0.03800
C910        C  0.33691938  0.87225257  0.42828832    -0.12400
C911        C  0.30273796  0.84187073  0.43474178     0.01300
C912        C  0.29873172  0.80517531  0.43144469    -0.10900
C913        C  0.32896503  0.79794392  0.42974066     0.03800
C914        C  0.36366739  0.82850823  0.42356458    -0.10300
H915        H  0.34003459  0.90063969  0.43028829     0.09300
H916        H  0.27234921  0.78196793  0.43598497     0.06900
H917        H  0.38766333  0.82353220  0.42182127     0.06700
Zr918      Zr  0.21993896  0.88913607  0.47278128     2.17500
O919        O  0.25698889  0.92523513  0.43031640    -0.50700
O920        O  0.26960352  0.93478208  0.50323794    -0.73900
O921        O  0.19889682  0.93471971  0.45189500    -0.80700
O922        O  0.25631380  0.81908023  0.47098501    -0.82400
O923        O  0.14018349  0.91823011  0.46619079    -0.78100
O924        O  0.26528061  0.87315533  0.44785135    -0.89700
O925        O  0.26141883  0.91871837  0.05190662    -0.75700
O926        O  0.18780003  0.89955699  0.01301677    -0.85100
O927        O  0.23116889  0.85978451  0.01535572    -0.84800
O928        O  0.15698206  0.85850507  0.45803895    -0.71600
O929        O  0.19696243  0.82297579  0.46268981    -0.83700
Zr930      Zr  0.11092187  0.77561637  0.03229341     2.26400
Zr931      Zr  0.12501984  0.86781324  0.99913443     2.06300
Zr932      Zr  0.20637765  0.79461231  0.50686113     2.10000
Zr933      Zr  0.19896170  0.87070969  0.05608513     1.78800
O934        O  0.22834152  0.75060929  0.48773234    -0.92500
O935        O  0.19530355  0.92597565  0.07649328    -0.40300
O936        O  0.17385367  0.80435646  0.04769425    -0.77000
O937        O  0.13586882  0.84122096  0.04350160    -0.95700
O938        O  0.09994439  0.80252975  0.48951475    -0.89000
O939        O  0.14452371  0.76489940  0.49241586    -0.91800
C940        C  0.28082671  0.93854351  0.02995338     1.01900
C941        C  0.27310680  0.84560056  0.45206786     1.14900
C942        C  0.16910639  0.93893781  0.45158823     1.05700
O943        O  0.12757273  0.92332455  0.02434787    -0.94000
O944        O  0.07416655  0.84884593  0.03315600    -0.89700
O945        O  0.05988784  0.78926926  0.04770136    -0.82900
C946        C  0.05407445  0.81863208  0.04709382     1.12300
O947        O  0.11182951  0.76124012  0.40171506    -0.95900
Zr948      Zr  0.13415109  0.79268192  0.44936223     1.88900
O949        O  0.06582990  0.72503356  0.00299070    -0.72600
O950        O  0.06976112  0.85763444  0.47382088    -0.51800
O951        O  0.09771785  0.81684118  0.42219388    -0.96500
O952        O  0.17756551  0.78810191  0.41290181    -0.53700
O953        O  0.08809638  0.72811041  0.45657946    -0.73100
C954        C  0.06524890  0.71097765  0.47770546     0.99200
O955        O  0.09251560  0.75429818  0.08376825    -0.61900
O956        O  0.25104773  0.80572180  0.04567058    -0.56700
O957        O  0.11344975  0.71740821  0.04403505    -0.93400
O958        O  0.17132156  0.73253003  0.02831503    -0.91800
O959        O  0.23165545  0.85116632  0.09189076    -0.92200
O960        O  0.17357584  0.86277334  0.10682227    -0.91000
C961        C  0.13987521  0.70906212  0.03869988     1.18100
H962        H  0.25681121  0.86801277  0.01874567     0.34000
H963        H  0.12334331  0.84518994  0.06069449     0.44900
H964        H  0.13765688  0.73898074  0.48796640     0.38400
H965        H  0.15364999  0.86949165  0.43983740     0.34900
H966        H  0.21399586  0.93516701  0.09224721     0.26700
H967        H  0.06341692  0.87766816  0.48099382     0.32600
H968        H  0.07215387  0.79899081  0.42684324     0.38500
H969        H  0.25433785  0.87387001  0.09611643     0.33000
H970        H  0.24608988  0.78049557  0.05305212     0.31900
H971        H  0.25124010  0.75668743  0.49849485     0.33500
H972        H  0.19081838  0.77599862  0.42332518     0.32500
H973        H  0.15424715  0.83671776  0.10744481     0.36500
H974        H  0.11511300  0.75654347  0.09329753     0.29200
H975        H  0.26626686  0.95179352  0.43628920     0.33500
H976        H  0.11225742  0.73659796  0.40309395     0.36300
H977        H  0.27470189  0.81454707  0.03476187     0.28900
H978        H  0.08766825  0.77409850  0.09352813     0.41800
H979        H  0.12920059  0.91864773  0.04593384     0.31900
H980        H  0.20524696  0.94504649  0.06041513     0.39500
H981        H  0.19601336  0.81388279  0.40826110     0.31300
H982        H  0.07755984  0.86425918  0.45266220     0.31400
H983        H  0.23974178  0.92187098  0.41395137     0.31700
C984        C  0.10825832  0.60605820  0.06180814     0.03800
C985        C  0.13788244  0.60119482  0.04872526    -0.12400
C986        C  0.16380941  0.62946676  0.03016028     0.01300
C987        C  0.15946601  0.66144402  0.02494321    -0.10900
C988        C  0.13470369  0.66982275  0.04142624     0.03800
C989        C  0.10769887  0.64134185  0.05901623    -0.10300
H990        H  0.14064187  0.57577487  0.05286515     0.09300
H991        H  0.17855587  0.68216192  0.00973383     0.06900
H992        H  0.08684535  0.64658575  0.07056175     0.06700
C993        C  0.12932405  0.50293391  0.42253904     0.03800
C994        C  0.13327985  0.96950654  0.42826579    -0.12400
C995        C  0.16725698  0.97054585  0.43516878     0.01300
C996        C  0.19814539  0.00449104  0.43298124    -0.10900
C997        C  0.19453696  0.53924918  0.43186628     0.03800
C998        C  0.16022577  0.53794044  0.42525328    -0.10300
H999        H  0.10892741  0.94312139  0.42920732     0.09300
H1000       H  0.22401338  0.00453508  0.43791052     0.06900
H1001       H  0.15719026  0.56358621  0.42383981     0.06700
C1002       C  0.48819769  0.85227338  0.07945760     0.03800
C1003       C  0.02091004  0.85177203  0.07109525    -0.12400
C1004       C  0.02143319  0.81804001  0.06198252     0.01300
C1005       C  0.48876024  0.78395069  0.06328510    -0.10900
C1006       C  0.45540073  0.78546738  0.06752539     0.01000
C1007       C  0.45522436  0.81978734  0.07610667    -0.10300
H1008       H  0.04610409  0.87732994  0.07161068     0.09300
H1009       H  0.48927071  0.75858707  0.05482724     0.06900
H1010       H  0.42964185  0.82164189  0.07870159     0.06700
C1011       C  0.50114156  0.61517140  0.44440727     0.03800
C1012       C  0.46772612  0.61517712  0.45286472    -0.12400
C1013       C  0.46715861  0.64413757  0.47078238     0.01300
C1014       C  0.49956700  0.67261798  0.48055623    -0.10900
C1015       C  0.03308911  0.67579336  0.47032987     0.03800
C1016       C  0.03399798  0.64640184  0.45266025    -0.10300
H1017       H  0.44229176  0.59283784  0.44552033     0.09300
H1018       H  0.49993912  0.69726237  0.99139428     0.06900
H1019       H  0.05992782  0.64736486  0.44566822     0.06700
C1020       C  0.37671911  0.99477923  0.06081460     0.03800
C1021       C  0.34333532  0.96385827  0.05396403    -0.12400
C1022       C  0.31703827  0.96905734  0.03693950     0.01300
C1023       C  0.32451772  0.00478894  0.02716834    -0.10900
C1024       C  0.35728675  0.53467531  0.03364334     0.03800
C1025       C  0.38303494  0.52979302  0.05118286    -0.10300
H1026       H  0.33810306  0.93605741  0.06139894     0.09300
H1027       H  0.30418238  0.00853719  0.01431674     0.06900
H1028       H  0.40827029  0.55371292  0.05673792     0.06700
Zr1029     Zr  0.26909209  0.59642044  0.21648494     2.17500
O1030       O  0.23513994  0.56023973  0.17367110    -0.50700
O1031       O  0.22418093  0.55433910  0.25304543    -0.73900
O1032       O  0.28764857  0.54587516  0.20152754    -0.80700
O1033       O  0.23514170  0.66733459  0.21238938    -0.82400
O1034       O  0.34756160  0.56443481  0.21137931    -0.78100
O1035       O  0.21748561  0.60704227  0.19882534    -0.89700
O1036       O  0.22842336  0.58485860  0.29713447    -0.75700
O1037       O  0.29804826  0.58970293  0.26038824    -0.85100
O1038       O  0.26268314  0.63604250  0.25453929    -0.84800
O1039       O  0.33185312  0.62043709  0.20142540    -0.71600
O1040       O  0.29729331  0.66015725  0.19746831    -0.83700
Zr1041     Zr  0.38524382  0.71156636  0.26691089     2.26400
Zr1042     Zr  0.36070385  0.61310230  0.24569787     2.06300
Zr1043     Zr  0.29296488  0.69865413  0.23718331     2.10000
Zr1044     Zr  0.29123418  0.62914466  0.29820827     1.78800
O1045       O  0.29698617  0.74519878  0.20022165    -0.92500
O1046       O  0.28885758  0.57625202  0.32712591    -0.40300
O1047       O  0.32217030  0.69216459  0.28116648    -0.77000
O1048       O  0.35405543  0.64930011  0.28624757    -0.95700
O1049       O  0.39170996  0.67536568  0.22691947    -0.89000
O1050       O  0.35515776  0.72052901  0.22407656    -0.91800
C1051       C  0.21262800  0.55725771  0.27962125     1.01900
C1052       C  0.21193088  0.63641622  0.20111521     1.14900
C1053       C  0.31759280  0.54176105  0.20031838     1.05700
O1054       O  0.34530135  0.55438914  0.27189385    -0.94000
O1055       O  0.40603992  0.62495804  0.28177317    -0.89700
O1056       O  0.42790617  0.68776852  0.28726076    -0.82900
C1057       C  0.42947690  0.65620539  0.29135769     1.12300
O1058       O  0.34707494  0.65279114  0.13563412    -0.95900
Zr1059     Zr  0.36053644  0.68318247  0.18448650     1.88900
O1060       O  0.42979569  0.75412341  0.23096697    -0.72600
O1061       O  0.41823344  0.61932003  0.22381063    -0.51800
O1062       O  0.41051135  0.67220882  0.16350005    -0.96500
O1063       O  0.34397794  0.71924678  0.14891891    -0.53700
O1064       O  0.41006783  0.74445544  0.18282114    -0.73100
C1065       C  0.43257132  0.76291658  0.20297608     0.99200
O1066       O  0.42405486  0.75193947  0.30591626    -0.61900
O1067       O  0.24856073  0.71266495  0.26481203    -0.56700
O1068       O  0.37746924  0.76478240  0.28718616    -0.93400
O1069       O  0.32383829  0.75518600  0.26653422    -0.91800
O1070       O  0.25862533  0.65761112  0.32682756    -0.92200
O1071       O  0.31425304  0.64622533  0.34878070    -0.91000
C1072       C  0.35169715  0.77423251  0.28276283     1.18100
H1073       H  0.23740585  0.63016912  0.25840600     0.34000
H1074       H  0.36448130  0.64648726  0.30476952     0.44900
H1075       H  0.36435981  0.74660915  0.21878659     0.38400
H1076       H  0.33453569  0.60738392  0.18399284     0.34900
H1077       H  0.26895127  0.57087922  0.34207812     0.26700
H1078       H  0.41938444  0.59567422  0.22887595     0.32600
H1079       H  0.43180069  0.68714815  0.17600756     0.38500
H1080       H  0.23719175  0.65356101  0.31462987     0.33000
H1081       H  0.22568716  0.68919091  0.26474158     0.31900
H1082       H  0.31774188  0.76866969  0.20651616     0.33500
H1083       H  0.36529755  0.73098336  0.13513728     0.32500
H1084       H  0.32905066  0.67367477  0.34789888     0.36500
H1085       H  0.41948643  0.73564212  0.32373257     0.29200
H1086       H  0.22483993  0.53371677  0.18003648     0.33500
H1087       H  0.36423570  0.67139017  0.12133794     0.36300
H1088       H  0.25648572  0.71529477  0.28590246     0.28900
H1089       H  0.44936368  0.75811044  0.29938659     0.41800
H1090       H  0.34577506  0.56060453  0.29346470     0.31900
H1091       H  0.27911103  0.55469507  0.31325566     0.39500
H1092       H  0.34406916  0.74039644  0.16072397     0.31300
H1093       H  0.41469987  0.61809104  0.20184783     0.31400
H1094       H  0.25383182  0.56300825  0.15817568     0.31700
C1095       C  0.38060715  0.87314173  0.31493064     0.03800
C1096       C  0.38312879  0.83978331  0.30684914    -0.12400
C1097       C  0.35204186  0.80863508  0.29663753     0.01300
C1098       C  0.31894431  0.81084053  0.29680008    -0.10900
C1099       C  0.31646575  0.84443475  0.30095966     0.03800
C1100       C  0.34748389  0.87578411  0.31082921    -0.10300
H1101       H  0.40898795  0.83842358  0.30801142     0.09300
H1102       H  0.29455319  0.78584688  0.29167522     0.06900
H1103       H  0.34599576  0.90188511  0.31521682     0.06700
Zr1104     Zr  0.10571431  0.76789583  0.23329213     2.17500
O1105       O  0.06007872  0.73117961  0.19671530    -0.50700
O1106       O  0.06228479  0.72450035  0.26908730    -0.73900
O1107       O  0.11524780  0.71522165  0.21231931    -0.80700
O1108       O  0.08472716  0.85484410  0.22195160    -0.82400
O1109       O  0.16767361  0.72196696  0.23383574    -0.78100
O1110       O  0.06535982  0.79311964  0.21178958    -0.89700
O1111       O  0.08376727  0.73256659  0.31661249    -0.75700
O1112       O  0.13798285  0.75838938  0.27394444    -0.85100
O1113       O  0.09987795  0.80213866  0.27546164    -0.84800
O1114       O  0.16776739  0.79028537  0.21518619    -0.71600
O1115       O  0.13290004  0.83163076  0.21744892    -0.83700
Zr1116     Zr  0.22212002  0.88239511  0.28346341     2.26400
Zr1117     Zr  0.19951272  0.78253918  0.25726821     2.06300
Zr1118     Zr  0.12804962  0.86619293  0.25993844     2.10000
Zr1119     Zr  0.13381879  0.79362906  0.31565045     1.78800
O1120       O  0.14181304  0.92857746  0.24134060    -0.92500
O1121       O  0.15020424  0.75403704  0.34771553    -0.40300
O1122       O  0.16033165  0.85719418  0.30054696    -0.77000
O1123       O  0.19604251  0.81784731  0.29967686    -0.95700
O1124       O  0.22692011  0.84611243  0.24209067    -0.89000
O1125       O  0.19029001  0.89215506  0.24247556    -0.91800
C1126       C  0.06015978  0.71517670  0.29686343     1.01900
C1127       C  0.06309928  0.82452236  0.20962483     1.14900
C1128       C  0.13993403  0.70416376  0.21719446     1.05700
O1129       O  0.20269801  0.73929784  0.29417376    -0.94000
O1130       O  0.25926286  0.81485415  0.27864684    -0.89700
O1131       O  0.27475222  0.87262598  0.29776958    -0.82900
C1132       C  0.28145124  0.84454347  0.29219085     1.12300
O1133       O  0.17143515  0.89853358  0.18501876    -0.95900
Zr1134     Zr  0.19495444  0.85518721  0.20159467     1.88900
O1135       O  0.26549230  0.92385062  0.24654610    -0.72600
O1136       O  0.24120562  0.77297652  0.22236074    -0.51800
O1137       O  0.18567159  0.81738465  0.15642488    -0.96500
O1138       O  0.22684446  0.88843459  0.15620067    -0.53700
O1139       O  0.25994093  0.88343347  0.20972936    -0.73100
C1140       C  0.27573502  0.91580022  0.22122227     0.99200
O1141       O  0.25653850  0.91654441  0.32675919    -0.61900
O1142       O  0.07284791  0.86587919  0.28212878    -0.56700
O1143       O  0.20253736  0.93110313  0.29941699    -0.93400
O1144       O  0.14247095  0.89855045  0.30644410    -0.91800
O1145       O  0.08705994  0.80401989  0.34325893    -0.92200
O1146       O  0.15579034  0.82364132  0.36368567    -0.91000
C1147       C  0.17103796  0.92909819  0.30737506     1.18100
H1148       H  0.07464545  0.79429097  0.28114035     0.34000
H1149       H  0.21009016  0.81540708  0.31597875     0.44900
H1150       H  0.19985464  0.91835915  0.23740961     0.38400
H1151       H  0.16942155  0.77545951  0.19861081     0.34900
H1152       H  0.14353598  0.73060195  0.33631021     0.26700
H1153       H  0.22881593  0.76783799  0.20280755     0.32600
H1154       H  0.20672464  0.81130144  0.15539740     0.38500
H1155       H  0.07059509  0.77938406  0.35195545     0.33000
H1156       H  0.06893268  0.88535611  0.27118571     0.31900
H1157       H  0.12705095  0.93734323  0.25411233     0.33500
H1158       H  0.24804442  0.88281487  0.15345070     0.32500
H1159       H  0.17789720  0.84682483  0.35866700     0.36500
H1160       H  0.26639767  0.94330906  0.32122896     0.29200
H1161       H  0.04939577  0.70502512  0.20405443     0.33500
H1162       H  0.15212572  0.88401827  0.17064116     0.36300
H1163       H  0.05260148  0.84199235  0.27591249     0.28900
H1164       H  0.23795156  0.91282140  0.34260269     0.41800
H1165       H  0.17895312  0.71689491  0.29306994     0.31900
H1166       H  0.17714435  0.76575580  0.34805784     0.39500
H1167       H  0.23763183  0.91529049  0.16148084     0.31300
H1168       H  0.26187900  0.79803757  0.21975712     0.31400
H1169       H  0.07386731  0.73130644  0.17818758     0.31700
C1170       C  0.12457733  0.49387665  0.32023945     0.03800
C1171       C  0.13261928  0.96237398  0.32325320    -0.12400
C1172       C  0.16581981  0.96327895  0.31199595     0.01300
C1173       C  0.18918676  0.49369438  0.29717615    -0.10900
C1174       C  0.18265859  0.52471736  0.29302711     0.03800
C1175       C  0.15091701  0.52549965  0.30520391    -0.10300
H1176       H  0.11183542  0.93677145  0.33282416     0.09300
H1177       H  0.21639715  0.99660473  0.28914714     0.06900
H1178       H  0.14664641  0.55034705  0.30269365     0.06700
C1179       C  0.49318821  0.62004650  0.32464222     0.03800
C1180       C  0.46055609  0.62224162  0.31784978    -0.12400
C1181       C  0.46151176  0.65539339  0.30536026     0.01300
C1182       C  0.49488372  0.68570392  0.30004909    -0.10900
C1183       C  0.02655728  0.68411557  0.30692619     0.03800
C1184       C  0.02581758  0.65192090  0.32027731    -0.10300
H1185       H  0.43470416  0.59788896  0.32120053     0.09300
H1186       H  0.49597110  0.71069316  0.28948182     0.06900
H1187       H  0.05113824  0.65044436  0.32482536     0.06700
C1188       C  0.49722694  0.86074253  0.17893163     0.03800
C1189       C  0.03175203  0.85938012  0.18496287    -0.12400
C1190       C  0.03159918  0.82554118  0.19498370     0.01300
C1191       C  0.49804423  0.79387810  0.19807290    -0.10900
C1192       C  0.46523166  0.79529446  0.19337720     0.03800
C1193       C  0.46446913  0.82820374  0.18301782    -0.10300
H1194       H  0.05715314  0.88464021  0.18346591     0.09300
H1195       H  0.49772584  0.76836620  0.20691810     0.06900
H1196       H  0.43857245  0.82889345  0.17951530     0.06700
C1197       C  0.11065472  0.60614574  0.18282522     0.03800
C1198       C  0.14464572  0.60441401  0.18421770    -0.12400
C1199       C  0.17616610  0.63609170  0.19316597     0.01300
C1200       C  0.17289469  0.66909611  0.19911714    -0.10900
C1201       C  0.13927939  0.67011852  0.20223128     0.03800
C1202       C  0.10786794  0.63866933  0.19302192    -0.10300
H1203       H  0.14636472  0.57870672  0.17863216     0.09300
H1204       H  0.19712565  0.69446277  0.20379809     0.06900
H1205       H  0.08162018  0.63929973  0.19395266     0.06700
C1206       C  0.36002098  0.98060250  0.17649171     0.03800
C1207       C  0.35148611  0.50849612  0.17743846    -0.12400
C1208       C  0.31860383  0.50742122  0.18941814     0.01300
C1209       C  0.29293840  0.97610341  0.19846813    -0.10900
C1210       C  0.30161631  0.94636491  0.20266384     0.03800
C1211       C  0.33454433  0.94779303  0.19090382    -0.10300
H1212       H  0.37229107  0.53455112  0.16848859     0.09300
H1213       H  0.26803614  0.97496464  0.20851073     0.06900
H1214       H  0.34089420  0.92434819  0.19411033     0.06700
C1215       C  0.49381217  0.98696528  0.09571421     0.46100
H1216       H  0.49460903  0.98618977  0.07080592    -0.02900
C1217       C  0.49140047  0.98827401  0.15436327     0.46100
H1218       H  0.49039848  0.98868795  0.17927141    -0.02900
C1219       C  0.45915954  0.98854714  0.10873417    -0.16600
C1220       C  0.49401918  0.95200731  0.11074008    -0.16400
C1221       C  0.02535913  0.52071016  0.11022138    -0.16800
C1222       C  0.45741613  0.98882514  0.13948475    -0.16700
C1223       C  0.49352417  0.95308897  0.14142051    -0.16300
C1224       C  0.02443467  0.52089999  0.14106620    -0.16600
C1225       C  0.42480669  0.98673217  0.15579059    -0.12600
C1226       C  0.39564889  0.98391037  0.16594052    -0.14200
C1227       C  0.05313118  0.54965296  0.15868965    -0.12600
C1228       C  0.07876589  0.57475741  0.17083726    -0.14200
C1229       C  0.49482750  0.92297216  0.15933283    -0.12600
C1230       C  0.49635384  0.89538322  0.16951163    -0.14200
C1231       C  0.43011745  0.98860670  0.09017068    -0.12600
C1232       C  0.40524805  0.99002757  0.07659121    -0.14200
C1233       C  0.49159552  0.91872839  0.09482236    -0.12600
C1234       C  0.48898800  0.88841987  0.08667477    -0.14200
C1235       C  0.07911212  0.57542885  0.07850666    -0.12600
C1236       C  0.05446119  0.55009227  0.09224446    -0.14200
C1237       C  0.40338379  0.89755849  0.41396971    -0.12600
C1238       C  0.43177669  0.92418021  0.40552695    -0.14200
C1239       C  0.49784637  0.55605777  0.41263432    -0.12600
C1240       C  0.50069695  0.58341485  0.42711611    -0.14200
C1241       C  0.09323535  0.49986974  0.41565338    -0.12600
C1242       C  0.06374125  0.99421419  0.40737666    -0.14200
C1243       C  0.41177951  0.90460310  0.32747348    -0.12600
C1244       C  0.43655108  0.92982795  0.34024322    -0.14200
C1245       C  0.49282243  0.58572028  0.33621629    -0.12600
C1246       C  0.99292234  0.55864548  0.34781692    -0.14200
C1247       C  0.06272227  0.49344151  0.34246491    -0.12600
C1248       C  0.09056048  0.49377557  0.33157202    -0.14200
C1249       C  0.99693546  0.49258152  0.84653734     0.46100
H1250       H  0.99776618  0.49481990  0.82167867    -0.02900
C1251       C  0.49578049  0.98895135  0.90663957     0.46100
H1252       H  0.49543662  0.98738997  0.93151584    -0.02900
C1253       C  0.03106744  0.49076120  0.85961218    -0.16600
C1254       C  0.99437748  0.52606029  0.86273751    -0.16400
C1255       C  0.46453183  0.95795486  0.86072970    -0.16800
C1256       C  0.03086169  0.98854938  0.89031697    -0.16700
C1257       C  0.49410896  0.52375401  0.89393323    -0.16300
C1258       C  0.46312217  0.95545565  0.89146555    -0.16600
Zr1259     Zr  0.38002592  0.66300181  0.53133753     2.17500
O1260       O  0.40656711  0.66314316  0.57994862    -0.50700
O1261       O  0.43020273  0.65988864  0.50340702    -0.73900
O1262       O  0.37324143  0.60052232  0.54324605    -0.80700
O1263       O  0.39989506  0.76448525  0.54211346    -0.82400
O1264       O  0.34758819  0.57379906  0.50003582    -0.78100
O1265       O  0.42243207  0.72289657  0.55194341    -0.89700
O1266       O  0.41459796  0.64889731  0.95320360    -0.75700
O1267       O  0.36194328  0.63062291  0.98441228    -0.85100
O1268       O  0.39059998  0.70813877  0.99348715    -0.84800
O1269       O  0.31641333  0.62142850  0.53940710    -0.71600
O1270       O  0.34315777  0.69425063  0.54491629    -0.83700
Zr1271     Zr  0.27065150  0.66537710  0.96595391     2.26400
Zr1272     Zr  0.29944441  0.59031119  0.99029183     2.06300
Zr1273     Zr  0.35301689  0.73788377  0.50528286     2.10000
Zr1274     Zr  0.37168851  0.67528063  0.94696056     1.78800
O1275       O  0.32328536  0.77257486  0.52941941    -0.92500
O1276       O  0.36086650  0.63532209  0.90304909    -0.40300
O1277       O  0.33437344  0.70442933  0.96166763    -0.77000
O1278       O  0.30749560  0.63413676  0.95071570    -0.95700
O1279       O  0.26190537  0.62148964  0.50328190    -0.89000
O1280       O  0.28872409  0.69874818  0.51099372    -0.91800
C1281       C  0.43511062  0.65080478  0.97518382     1.01900
C1282       C  0.42337995  0.75559851  0.55363925     1.14900
C1283       C  0.36051725  0.57235977  0.52557994     1.05700
O1284       O  0.29620138  0.54180627  0.95521567    -0.94000
O1285       O  0.24622305  0.56415057  0.96090246    -0.89700
O1286       O  0.22980283  0.60632759  0.94058866    -0.82900
C1287       C  0.22541306  0.57248675  0.94470140     1.12300
O1288       O  0.29430699  0.67604610  0.60067961    -0.95900
Zr1289     Zr  0.27921677  0.65310789  0.54954433     1.88900
O1290       O  0.21588665  0.65220881  0.99721930    -0.72600
O1291       O  0.25993147  0.54452173  0.52923183    -0.51800
O1292       O  0.25699571  0.59799892  0.58186826    -0.96500
O1293       O  0.24831588  0.68800238  0.57182056    -0.53700
O1294       O  0.21616819  0.61795076  0.53626706    -0.73100
C1295       C  0.19996715  0.63097254  0.51903816     0.99200
O1296       O  0.23262241  0.67238695  0.92724187    -0.61900
O1297       O  0.39562802  0.80176532  0.99809821    -0.56700
O1298       O  0.29483968  0.73188101  0.94550324    -0.93400
O1299       O  0.35257446  0.76629206  0.96107377    -0.91800
O1300       O  0.43007951  0.72832182  0.93589307    -0.92200
O1301       O  0.37319736  0.70870214  0.90097896    -0.91000
C1302       C  0.32549616  0.76253840  0.94530479     1.18100
H1303       H  0.41588513  0.72623836  0.99259915     0.34000
H1304       H  0.29931310  0.62143508  0.93186621     0.44900
H1305       H  0.27486139  0.71274767  0.51446852     0.38400
H1306       H  0.31375461  0.60398129  0.55528575     0.34900
H1307       H  0.38495090  0.64434944  0.89281678     0.26700
H1308       H  0.24609749  0.52124429  0.51785846     0.32600
H1309       H  0.23287710  0.59491176  0.58937976     0.38500
H1310       H  0.44400509  0.71766058  0.92406317     0.33000
H1311       H  0.39631722  0.81601129  0.01654374     0.31900
H1312       H  0.32134707  0.78860084  0.51329980     0.33500
H1313       H  0.22714230  0.66906222  0.58300159     0.32500
H1314       H  0.34871185  0.70802286  0.90000779     0.36500
H1315       H  0.22639779  0.69252897  0.93437835     0.29200
H1316       H  0.42818912  0.65878936  0.57528577     0.33500
H1317       H  0.27464106  0.65813498  0.61379859     0.36300
H1318       H  0.41984892  0.80174276  0.99664154     0.28900
H1319       H  0.24896826  0.68304939  0.90961657     0.41800
H1320       H  0.28322822  0.51788744  0.96616843     0.31900
H1321       H  0.35627592  0.61055413  0.91126735     0.39500
H1322       H  0.23725748  0.69555886  0.55518733     0.31300
H1323       H  0.27676727  0.53899274  0.54169269     0.31400
H1324       H  0.38926812  0.64006109  0.59031107     0.31700
C1325       C  0.36771031  0.86536813  0.92144506     0.03800
C1326       C  0.33652329  0.87134736  0.92761687    -0.12400
C1327       C  0.30237855  0.84071633  0.93377210     0.01300
C1328       C  0.29884995  0.80418060  0.93058079    -0.10900
C1329       C  0.32941056  0.79746025  0.92982493     0.03800
C1330       C  0.36408257  0.82826099  0.92404798    -0.10300
H1331       H  0.33930926  0.89962266  0.92950037     0.09300
H1332       H  0.27254923  0.78074383  0.93492336     0.06900
H1333       H  0.38832518  0.82364911  0.92320648     0.06700
Zr1334     Zr  0.22027608  0.88893253  0.97207955     2.17500
O1335       O  0.25491935  0.92251712  0.92781043    -0.50700
O1336       O  0.27029142  0.93454355  0.00243743    -0.73900
O1337       O  0.19970480  0.93542232  0.95191007    -0.80700
O1338       O  0.25454759  0.81692414  0.96896268    -0.82400
O1339       O  0.14000103  0.91698259  0.96383149    -0.78100
O1340       O  0.26623980  0.87302887  0.94809510    -0.89700
O1341       O  0.26187471  0.91775331  0.55243178    -0.75700
O1342       O  0.18778343  0.89954505  0.51404167    -0.85100
O1343       O  0.23115295  0.85973888  0.51574401    -0.84800
O1344       O  0.15751224  0.85817207  0.95698932    -0.71600
O1345       O  0.19715850  0.82262415  0.96225406    -0.83700
Zr1346     Zr  0.11114060  0.77524749  0.53324583     2.26400
Zr1347     Zr  0.12489592  0.86789072  0.50059244     2.06300
Zr1348     Zr  0.20645868  0.79459894  0.00664292     2.10000
Zr1349     Zr  0.19920926  0.87045370  0.55678244     1.78800
O1350       O  0.22801894  0.74959879  0.98916885    -0.92500
O1351       O  0.19846047  0.92721325  0.57693268    -0.40300
O1352       O  0.17419238  0.80414060  0.54830939    -0.77000
O1353       O  0.13596529  0.84086781  0.54459524    -0.95700
O1354       O  0.09984326  0.80241284  0.98832450    -0.89000
O1355       O  0.14471810  0.76491936  0.99204084    -0.91800
C1356       C  0.28069038  0.93823544  0.53054872     1.01900
C1357       C  0.27253363  0.84427494  0.95100793     1.14900
C1358       C  0.16949822  0.93882164  0.95054547     1.05700
O1359       O  0.12752800  0.92247400  0.52745765    -0.94000
O1360       O  0.07344844  0.84746125  0.53410327    -0.89700
O1361       O  0.05969169  0.78820506  0.54921812    -0.82900
C1362       C  0.05354719  0.81737683  0.54827905     1.12300
O1363       O  0.11186762  0.75792806  0.90223069    -0.95900
Zr1364     Zr  0.13441328  0.79226342  0.94869380     1.88900
O1365       O  0.06636772  0.72420781  0.50429363    -0.72600
O1366       O  0.06952343  0.85627652  0.97235956    -0.51800
O1367       O  0.09820185  0.81676981  0.92157770    -0.96500
O1368       O  0.17694772  0.78741366  0.91165473    -0.53700
O1369       O  0.08897128  0.72758863  0.95596686    -0.73100
C1370       C  0.06532359  0.71115384  0.97671714     0.99200
O1371       O  0.09293949  0.75300869  0.58456350    -0.61900
O1372       O  0.24832737  0.80216460  0.54731722    -0.56700
O1373       O  0.11456358  0.71731948  0.54491288    -0.93400
O1374       O  0.17161530  0.73208558  0.52734509    -0.91800
O1375       O  0.23071988  0.84946526  0.59263424    -0.92200
O1376       O  0.17233386  0.86433539  0.60682511    -0.91000
C1377       C  0.14065267  0.70877679  0.53854634     1.18100
H1378       H  0.25680402  0.86779163  0.51898242     0.34000
H1379       H  0.12338435  0.84469455  0.56181437     0.44900
H1380       H  0.13795127  0.73895943  0.98785248     0.38400
H1381       H  0.15455129  0.86916675  0.93865320     0.34900
H1382       H  0.21715819  0.93571683  0.59269371     0.26700
H1383       H  0.06237428  0.87562399  0.97984250     0.32600
H1384       H  0.07279450  0.80113424  0.92840041     0.38500
H1385       H  0.25575946  0.86986147  0.59369287     0.33000
H1386       H  0.24388948  0.77636575  0.55264967     0.31900
H1387       H  0.25014353  0.75501499  0.00086127     0.33500
H1388       H  0.18981050  0.77476944  0.92190080     0.32500
H1389       H  0.15471830  0.83763350  0.60847874     0.36500
H1390       H  0.11550473  0.75484611  0.59388854     0.29200
H1391       H  0.26434127  0.94941719  0.93269035     0.33500
H1392       H  0.08515898  0.74946205  0.90253817     0.36300
H1393       H  0.27274242  0.81314874  0.53754457     0.28900
H1394       H  0.08839109  0.77279313  0.59467518     0.41800
H1395       H  0.12636349  0.91584105  0.54895314     0.31900
H1396       H  0.20908156  0.94612147  0.56079811     0.39500
H1397       H  0.19577292  0.81315220  0.90746661     0.31300
H1398       H  0.07727433  0.86352271  0.95127722     0.31400
H1399       H  0.23668396  0.91793522  0.91202378     0.31700
C1400       C  0.10940580  0.60596666  0.56196041     0.03800
C1401       C  0.13874434  0.60086049  0.54848348    -0.12400
C1402       C  0.16445636  0.62900326  0.52963241     0.01300
C1403       C  0.16043854  0.66123314  0.52484535    -0.10900
C1404       C  0.13570558  0.66961998  0.54136920     0.03800
C1405       C  0.10888078  0.64124172  0.55912600    -0.10300
H1406       H  0.14136818  0.57533123  0.55244812     0.09300
H1407       H  0.17954931  0.68196289  0.50965202     0.06900
H1408       H  0.08813601  0.64656358  0.57077516     0.06700
C1409       C  0.12904398  0.50289708  0.92291657     0.03800
C1410       C  0.13351992  0.96956706  0.92764814    -0.12400
C1411       C  0.16757618  0.97082405  0.93474188     0.01300
C1412       C  0.19815968  0.00507883  0.93342650    -0.10900
C1413       C  0.19429901  0.53891079  0.93223695     0.03800
C1414       C  0.16006856  0.53780739  0.92563267    -0.10300
H1415       H  0.10937980  0.94298087  0.92784822     0.09300
H1416       H  0.22411260  0.00538287  0.93837260     0.06900
H1417       H  0.15723492  0.56354843  0.92402069     0.06700
C1418       C  0.48799448  0.85342958  0.57774132     0.03800
C1419       C  0.02048851  0.85102573  0.57149934    -0.12400
C1420       C  0.02077266  0.81698755  0.56293149     0.01300
C1421       C  0.48924766  0.78535585  0.56203495    -0.10900
C1422       C  0.45579148  0.78659995  0.56624607     0.01000
C1423       C  0.45523221  0.82071330  0.57473790    -0.10300
H1424       H  0.04585967  0.87638013  0.57221073     0.09300
H1425       H  0.48991207  0.75999320  0.55373933     0.06900
H1426       H  0.42948468  0.82220879  0.57744590     0.06700
C1427       C  0.50145375  0.61519397  0.94417880     0.03800
C1428       C  0.46827850  0.61635793  0.95161104    -0.12400
C1429       C  0.46807801  0.64600436  0.96880041     0.01300
C1430       C  0.50058394  0.67418147  0.97869654    -0.10900
C1431       C  0.03321201  0.67594714  0.96919084     0.03800
C1432       C  0.03432075  0.64623812  0.95204623    -0.10300
H1433       H  0.44272587  0.59421450  0.94426020     0.09300
H1434       H  0.49864627  0.69523008  0.49373069     0.06900
H1435       H  0.06032447  0.64730116  0.94517655     0.06700
C1436       C  0.37578745  0.99489634  0.56242354     0.03800
C1437       C  0.34255868  0.96391857  0.55545087    -0.12400
C1438       C  0.31686468  0.96877841  0.53738707     0.01300
C1439       C  0.32482744  0.00423287  0.52658325    -0.10900
C1440       C  0.35674654  0.53564697  0.53519475     0.03800
C1441       C  0.38226606  0.53070274  0.55297665    -0.10300
H1442       H  0.33699537  0.93629852  0.56358750     0.09300
H1443       H  0.30484084  0.00784628  0.51309013     0.06900
H1444       H  0.40735416  0.55461332  0.55885694     0.06700
Zr1445     Zr  0.26872020  0.59755213  0.71565504     2.17500
O1446       O  0.23524034  0.56371217  0.67185881    -0.50700
O1447       O  0.22331367  0.55538038  0.75187887    -0.73900
O1448       O  0.28665887  0.54641325  0.70051909    -0.80700
O1449       O  0.23436534  0.66812964  0.71317120    -0.82400
O1450       O  0.34721449  0.56623607  0.70798383    -0.78100
O1451       O  0.21672160  0.60802659  0.69906363    -0.89700
O1452       O  0.22941441  0.58377241  0.79728533    -0.75700
O1453       O  0.29777701  0.59014491  0.75923776    -0.85100
O1454       O  0.26266757  0.63675469  0.75431439    -0.84800
O1455       O  0.33126266  0.62177703  0.69992359    -0.71600
O1456       O  0.29698397  0.66161231  0.69727960    -0.83700
Zr1457     Zr  0.38508638  0.71196107  0.76651046     2.26400
Zr1458     Zr  0.36018212  0.61343263  0.74381821     2.06300
Zr1459     Zr  0.29256302  0.69959292  0.73734570     2.10000
Zr1460     Zr  0.29163576  0.62954214  0.79756972     1.78800
O1461       O  0.29405910  0.74474393  0.70007064    -0.92500
O1462       O  0.29338095  0.57875064  0.82674182    -0.40300
O1463       O  0.32214665  0.69267945  0.78092715    -0.77000
O1464       O  0.35409661  0.64931899  0.78492629    -0.95700
O1465       O  0.39130906  0.67621261  0.72599792    -0.89000
O1466       O  0.35487925  0.72175789  0.72406227    -0.91800
C1467       C  0.21262132  0.55733799  0.77898600     1.01900
C1468       C  0.21111773  0.63731292  0.70179342     1.14900
C1469       C  0.31681996  0.54273945  0.69819869     1.05700
O1470       O  0.34286951  0.55440929  0.77007427    -0.94000
O1471       O  0.40582115  0.62461286  0.77939028    -0.89700
O1472       O  0.42748458  0.68726543  0.78608302    -0.82900
C1473       C  0.42905187  0.65558767  0.78958210     1.12300
O1474       O  0.34676647  0.65760572  0.63407695    -0.95900
Zr1475     Zr  0.36021878  0.68501861  0.68400969     1.88900
O1476       O  0.43036975  0.75526271  0.73155659    -0.72600
O1477       O  0.41731648  0.61671815  0.72336778    -0.51800
O1478       O  0.40919512  0.67256175  0.66276505    -0.96500
O1479       O  0.34511956  0.72345036  0.64965437    -0.53700
O1480       O  0.41101633  0.74553110  0.68330615    -0.73100
C1481       C  0.43343887  0.76390648  0.70354118     0.99200
O1482       O  0.42296959  0.75006133  0.80692213    -0.61900
O1483       O  0.24822998  0.71241577  0.76630573    -0.56700
O1484       O  0.37694382  0.76494869  0.78718903    -0.93400
O1485       O  0.32379049  0.75666666  0.76614942    -0.91800
O1486       O  0.25803407  0.65635814  0.82688034    -0.92200
O1487       O  0.31412551  0.64925081  0.84796109    -0.91000
C1488       C  0.35155351  0.77501422  0.78272817     1.18100
H1489       H  0.23740207  0.63057332  0.75860559     0.34000
H1490       H  0.36452259  0.64607449  0.80329881     0.44900
H1491       H  0.36428394  0.74791955  0.71895359     0.38400
H1492       H  0.33346483  0.60895928  0.68213982     0.34900
H1493       H  0.27406272  0.57292260  0.84232498     0.26700
H1494       H  0.41621655  0.59172167  0.72706160     0.32600
H1495       H  0.43082327  0.68744228  0.67495018     0.38500
H1496       H  0.23538027  0.65013971  0.81569504     0.33000
H1497       H  0.22547825  0.68881129  0.76615579     0.31900
H1498       H  0.31493774  0.76849197  0.70564865     0.33500
H1499       H  0.36695719  0.73607476  0.63653852     0.32500
H1500       H  0.33549277  0.67377152  0.84505967     0.36500
H1501       H  0.41787941  0.73282394  0.82418219     0.29200
H1502       H  0.22519455  0.53687978  0.67721903     0.33500
H1503       H  0.36433222  0.67680698  0.62038748     0.36300
H1504       H  0.25652526  0.71461116  0.78725917     0.28900
H1505       H  0.44842712  0.75649524  0.80069019     0.41800
H1506       H  0.36257741  0.54706214  0.76517988     0.31900
H1507       H  0.28381320  0.55679329  0.81326906     0.39500
H1508       H  0.34472582  0.74380568  0.66224695     0.31300
H1509       H  0.41543348  0.61805233  0.70134222     0.31400
H1510       H  0.25417649  0.56758622  0.65630101     0.31700
C1511       C  0.38050009  0.87330017  0.81654461     0.03800
C1512       C  0.38319923  0.84031682  0.80743850    -0.12400
C1513       C  0.35199733  0.80910605  0.79739439     0.01300
C1514       C  0.31866693  0.81082389  0.79874937    -0.10900
C1515       C  0.31591575  0.84420553  0.80353684     0.03800
C1516       C  0.34703240  0.87559735  0.81334194    -0.10300
H1517       H  0.40923706  0.83925008  0.80778536     0.09300
H1518       H  0.29432197  0.78572037  0.79372965     0.06900
H1519       H  0.34538921  0.90150725  0.81825909     0.06700
Zr1520     Zr  0.10473223  0.76797640  0.73557244     2.17500
O1521       O  0.05670412  0.73003519  0.70120863    -0.50700
O1522       O  0.06189492  0.72518791  0.77190441    -0.73900
O1523       O  0.11410679  0.71556809  0.71408182    -0.80700
O1524       O  0.08376467  0.85525676  0.72406666    -0.82400
O1525       O  0.16722617  0.72295677  0.73470583    -0.78100
O1526       O  0.06541480  0.79389949  0.71289406    -0.89700
O1527       O  0.08407555  0.73193114  0.81908851    -0.75700
O1528       O  0.13712026  0.75847327  0.77618945    -0.85100
O1529       O  0.09861910  0.80192240  0.77770965    -0.84800
O1530       O  0.16687873  0.79026905  0.71755641    -0.71600
O1531       O  0.13164314  0.83165089  0.71990360    -0.83700
Zr1532     Zr  0.22153097  0.88231662  0.78534446     2.26400
Zr1533     Zr  0.19880183  0.78266931  0.75965572     2.06300
Zr1534     Zr  0.12666054  0.86598295  0.76241273     2.10000
Zr1535     Zr  0.13274900  0.79372726  0.81782198     1.78800
O1536       O  0.13972148  0.92820108  0.74387034    -0.92500
O1537       O  0.15086212  0.75577575  0.85017481    -0.40300
O1538       O  0.15968900  0.85725277  0.80268818    -0.77000
O1539       O  0.19508547  0.81802819  0.80190785    -0.95700
O1540       O  0.22595090  0.84600224  0.74394873    -0.89000
O1541       O  0.18886339  0.89177916  0.74477099    -0.91800
C1542       C  0.06009577  0.71520008  0.79946303     1.01900
C1543       C  0.06279338  0.82516498  0.71102272     1.14900
C1544       C  0.13919234  0.70492603  0.71838392     1.05700
O1545       O  0.20163249  0.73943206  0.79677520    -0.94000
O1546       O  0.25840145  0.81443348  0.78155546    -0.89700
O1547       O  0.27413293  0.87248185  0.80009804    -0.82900
C1548       C  0.28071926  0.84422726  0.79491030     1.12300
O1549       O  0.17253931  0.90076520  0.68786705    -0.95900
Zr1550     Zr  0.19346617  0.85504477  0.70373766     1.88900
O1551       O  0.26502027  0.92287188  0.74787639    -0.72600
O1552       O  0.24285096  0.77466753  0.72644234    -0.51800
O1553       O  0.17999873  0.81623632  0.65880977    -0.96500
O1554       O  0.22449587  0.88673116  0.65756716    -0.53700
O1555       O  0.25857519  0.88246001  0.71075127    -0.73100
C1556       C  0.27496455  0.91465075  0.72245907     0.99200
O1557       O  0.25516551  0.91600900  0.82909329    -0.61900
O1558       O  0.07047699  0.86309072  0.78488006    -0.56700
O1559       O  0.20310898  0.93199397  0.80009445    -0.93400
O1560       O  0.14362874  0.89854452  0.80873466    -0.91800
O1561       O  0.08369918  0.80285469  0.84277139    -0.92200
O1562       O  0.15036488  0.82351586  0.86650470    -0.91000
C1563       C  0.17157271  0.92966440  0.80812026     1.18100
H1564       H  0.07333659  0.79395269  0.78330521     0.34000
H1565       H  0.20917415  0.81573549  0.81821876     0.44900
H1566       H  0.19845617  0.91801086  0.73980169     0.38400
H1567       H  0.16875154  0.77559626  0.70096181     0.34900
H1568       H  0.14725143  0.73356891  0.83803556     0.26700
H1569       H  0.23039037  0.76692689  0.70701377     0.32600
H1570       H  0.20101868  0.81032209  0.65601668     0.38500
H1571       H  0.07175408  0.78105141  0.85632185     0.33000
H1572       H  0.06759045  0.88446020  0.77622851     0.31900
H1573       H  0.12064911  0.93416800  0.75300759     0.33500
H1574       H  0.24488714  0.87994692  0.65430348     0.32500
H1575       H  0.17569918  0.84289308  0.86339384     0.36500
H1576       H  0.26625748  0.94274807  0.82329813     0.29200
H1577       H  0.04677147  0.70411281  0.70899927     0.33500
H1578       H  0.15112344  0.88643242  0.67530068     0.36300
H1579       H  0.05036305  0.84068842  0.77630256     0.28900
H1580       H  0.23626702  0.91332077  0.84437345     0.41800
H1581       H  0.18134046  0.71493106  0.79189899     0.31900
H1582       H  0.17759217  0.76956839  0.85221842     0.39500
H1583       H  0.23647115  0.91369104  0.66252404     0.31300
H1584       H  0.26203066  0.80034490  0.72265367     0.31400
H1585       H  0.06928417  0.72972348  0.68209757     0.31700
C1586       C  0.12393632  0.49289559  0.81840459     0.03800
C1587       C  0.13214699  0.96232980  0.82190293    -0.12400
C1588       C  0.16531440  0.96340888  0.81056261     0.01300
C1589       C  0.18929036  0.49373616  0.79604991    -0.10900
C1590       C  0.18248922  0.52458366  0.79194208     0.03800
C1591       C  0.15036414  0.52488088  0.80376927    -0.10300
H1592       H  0.11214765  0.93719196  0.83270368     0.09300
H1593       H  0.21496051  0.99609965  0.78625332     0.06900
H1594       H  0.14599563  0.54969725  0.80149430     0.06700
C1595       C  0.49172915  0.61895928  0.82446764     0.03800
C1596       C  0.45933961  0.62108026  0.81657839    -0.12400
C1597       C  0.46070874  0.65435475  0.80392637     0.01300
C1598       C  0.49419064  0.68472261  0.79928684    -0.10900
C1599       C  0.02650513  0.68402188  0.80916320     0.03800
C1600       C  0.02561899  0.65107258  0.82106190    -0.10300
H1601       H  0.43338870  0.59672398  0.81947014     0.09300
H1602       H  0.49559569  0.70977317  0.78858551     0.06900
H1603       H  0.05086334  0.64960515  0.82596387     0.06700
C1604       C  0.49899031  0.86072082  0.67790637     0.03800
C1605       C  0.03186466  0.85986448  0.68542371    -0.12400
C1606       C  0.03149925  0.82612366  0.69591555     0.01300
C1607       C  0.49898564  0.79389350  0.69807468    -0.10900
C1608       C  0.46637315  0.79590350  0.69382676     0.03800
C1609       C  0.46601426  0.82878875  0.68302237    -0.10300
H1610       H  0.05733512  0.88504508  0.68389556     0.09300
H1611       H  0.49835232  0.76840649  0.70727762     0.06900
H1612       H  0.44027101  0.82993688  0.67985240     0.06700
C1613       C  0.10989180  0.60714016  0.68366649     0.03800
C1614       C  0.14382459  0.60534245  0.68515146    -0.12400
C1615       C  0.17534223  0.63700074  0.69407515     0.01300
C1616       C  0.17214510  0.67002351  0.70001145    -0.10900
C1617       C  0.13855479  0.67105992  0.70315974     0.03800
C1618       C  0.10713181  0.63968179  0.69384688    -0.10300
H1619       H  0.14552944  0.57963182  0.67955222     0.09300
H1620       H  0.19641097  0.69535899  0.70467545     0.06900
H1621       H  0.08089345  0.64033318  0.69477518     0.06700
C1622       C  0.35989443  0.97872019  0.67808635     0.03800
C1623       C  0.35074271  0.50915509  0.67557691    -0.12400
C1624       C  0.31792089  0.50808027  0.68787185     0.01300
C1625       C  0.29265301  0.97470348  0.69907561    -0.10900
C1626       C  0.30121408  0.94499861  0.70394829     0.03800
C1627       C  0.33427884  0.94620180  0.69274169    -0.10300
H1628       H  0.37106771  0.53498403  0.66589310     0.09300
H1629       H  0.26770757  0.97382254  0.70880136     0.06900
H1630       H  0.34058637  0.92283176  0.69652448     0.06700
C1631       C  0.49265602  0.98707711  0.59613366     0.46100
H1632       H  0.49281069  0.98657960  0.57121279    -0.02900
C1633       C  0.49179431  0.98771295  0.65481934     0.46100
H1634       H  0.49144931  0.98785320  0.67973848    -0.02900
C1635       C  0.45829957  0.98836825  0.61009052    -0.16600
C1636       C  0.49340548  0.95208709  0.61046615    -0.16400
C1637       C  0.02568973  0.52158775  0.61057385    -0.16800
C1638       C  0.45729912  0.98811855  0.64084910    -0.16700
C1639       C  0.49389770  0.95283724  0.64114371    -0.16300
C1640       C  0.02437414  0.52174619  0.64141997    -0.16600
C1641       C  0.42490529  0.98531078  0.65783497    -0.12600
C1642       C  0.39564144  0.98202333  0.66803871    -0.14200
C1643       C  0.05270605  0.55058860  0.65925589    -0.12600
C1644       C  0.07809103  0.57577535  0.67157324    -0.14200
C1645       C  0.49631130  0.92282039  0.65839520    -0.12600
C1646       C  0.49835893  0.89538528  0.66830556    -0.14200
C1647       C  0.42884572  0.98873199  0.59227025    -0.12600
C1648       C  0.40398003  0.99030208  0.57881412    -0.14200
C1649       C  0.49074749  0.91921417  0.59391959    -0.12600
C1650       C  0.48832407  0.88922057  0.58523787    -0.14200
C1651       C  0.08025928  0.57558935  0.57890919    -0.12600
C1652       C  0.05529486  0.55067088  0.59274600    -0.14200
C1653       C  0.40349325  0.89751702  0.91487322    -0.12600
C1654       C  0.43196228  0.92449266  0.90701478    -0.14200
C1655       C  0.49729352  0.55509639  0.91342081    -0.12600
C1656       C  0.50051449  0.58274566  0.92764385    -0.14200
C1657       C  0.09315717  0.49993979  0.91555239    -0.12600
C1658       C  0.06374770  0.99386195  0.90642242    -0.14200
C1659       C  0.41185120  0.90473251  0.82912443    -0.12600
C1660       C  0.43675838  0.92995361  0.84187413    -0.14200
C1661       C  0.49106434  0.58471155  0.83669482    -0.12600
C1662       C  0.99276177  0.55746140  0.84705498    -0.14200
C1663       C  0.06235631  0.49218769  0.84165250    -0.12600
C1664       C  0.08998123  0.49258103  0.83020875    -0.14200
C1665       C  0.49719293  0.99242986  0.34645645     0.46100
H1666       H  0.49770476  0.99442693  0.32158930    -0.02900
C1667       C  0.99492978  0.48835169  0.40559627     0.46100
H1668       H  0.99427566  0.48635253  0.43045385    -0.02900
C1669       C  0.53128597  0.99030882  0.35927618    -0.16600
C1670       C  0.49515626  0.02620494  0.36258441    -0.16400
C1671       C  0.96426413  0.45832196  0.35924015    -0.16800
C1672       C  0.53046474  0.48902967  0.39019314    -0.16700
C1673       C  0.99485536  0.02401906  0.39467789    -0.16300
C1674       C  0.96240810  0.45522709  0.38996977    -0.16600
Zr1675     Zr  0.88131532  0.16297190  0.02953762     2.17500
O1676       O  0.91069439  0.16398004  0.07691911    -0.50700
O1677       O  0.93111905  0.15979705  0.00094594    -0.73900
O1678       O  0.87346605  0.10046803  0.04255132    -0.80700
O1679       O  0.89924512  0.26400199  0.04225197    -0.82400
O1680       O  0.84891990  0.07320449  0.99916908    -0.78100
O1681       O  0.92242379  0.22274116  0.05113119    -0.89700
O1682       O  0.91473325  0.14715201  0.45314807    -0.75700
O1683       O  0.86109774  0.12922317  0.48471724    -0.85100
O1684       O  0.89134769  0.20716025  0.49112022    -0.84800
O1685       O  0.81788475  0.12040682  0.03727100    -0.71600
O1686       O  0.84372124  0.19295529  0.04447122    -0.83700
Zr1687     Zr  0.77059952  0.16500921  0.46476778     2.26400
Zr1688     Zr  0.79833639  0.09008432  0.49195785     2.06300
Zr1689     Zr  0.85224310  0.23694906  0.00554871     2.10000
Zr1690     Zr  0.87100667  0.17214800  0.44572655     1.78800
O1691       O  0.82206814  0.26971254  0.03200207    -0.92500
O1692       O  0.86153038  0.12861587  0.40445974    -0.40300
O1693       O  0.83442236  0.20282460  0.45852028    -0.77000
O1694       O  0.80666946  0.13229176  0.45088300    -0.95700
O1695       O  0.76290093  0.12018889  0.00212813    -0.89000
O1696       O  0.78816356  0.19733277  0.01152305    -0.91800
C1697       C  0.93532034  0.15000290  0.47527868     1.01900
C1698       C  0.92302678  0.25524505  0.05339783     1.14900
C1699       C  0.86096118  0.07205031  0.02514826     1.05700
O1700       O  0.79188202  0.03531323  0.46315090    -0.94000
O1701       O  0.74620153  0.06387248  0.46098105    -0.89700
O1702       O  0.72914133  0.10554717  0.44055768    -0.82900
C1703       C  0.72528603  0.07190595  0.44458685     1.12300
O1704       O  0.79644303  0.17101780  0.10053412    -0.95900
Zr1705     Zr  0.77998304  0.15081289  0.04899031     1.88900
O1706       O  0.71594978  0.15179795  0.49645186    -0.72600
O1707       O  0.76259882  0.04257231  0.02470218    -0.51800
O1708       O  0.75700136  0.09427842  0.07976109    -0.96500
O1709       O  0.75171868  0.18656304  0.07406413    -0.53700
O1710       O  0.71648557  0.11792349  0.03644625    -0.73100
C1711       C  0.70067896  0.13151806  0.01936010     0.99200
O1712       O  0.73424338  0.16982774  0.42366593    -0.61900
O1713       O  0.89971475  0.30055365  0.49111910    -0.56700
O1714       O  0.79261517  0.23197421  0.44592794    -0.93400
O1715       O  0.85270665  0.26224337  0.45508740    -0.91800
O1716       O  0.92731921  0.22694988  0.43271579    -0.92200
O1717       O  0.87103576  0.20081151  0.39764902    -0.91000
C1718       C  0.82423058  0.26123225  0.44323365     1.18100
H1719       H  0.91674479  0.22488913  0.48991488     0.34000
H1720       H  0.79825876  0.11884084  0.43235186     0.44900
H1721       H  0.77395888  0.21089184  0.01546436     0.38400
H1722       H  0.81493856  0.10230423  0.05266590     0.34900
H1723       H  0.88620023  0.13543558  0.39593685     0.26700
H1724       H  0.74346022  0.05016400  0.03099337     0.32600
H1725       H  0.73216048  0.09005593  0.08618391     0.38500
H1726       H  0.94710450  0.22158687  0.44046832     0.33000
H1727       H  0.89974831  0.31678591  0.50803495     0.31900
H1728       H  0.81875525  0.28558259  0.01646211     0.33500
H1729       H  0.73099336  0.16777288  0.08577190     0.32500
H1730       H  0.84811219  0.20361940  0.39784684     0.36500
H1731       H  0.72332472  0.18610716  0.43132876     0.29200
H1732       H  0.93016380  0.15640999  0.07167065     0.33500
H1733       H  0.77748623  0.15206210  0.11352892     0.36300
H1734       H  0.92353605  0.29964237  0.49191022     0.28900
H1735       H  0.75187389  0.18470976  0.40783162     0.41800
H1736       H  0.77195216  0.01360569  0.47307857     0.31900
H1737       H  0.85455417  0.10412594  0.41431075     0.39500
H1738       H  0.73994492  0.19459643  0.05828559     0.31300
H1739       H  0.74949065  0.02004047  0.01231334     0.31400
H1740       H  0.89264899  0.14282799  0.08881447     0.31700
C1741       C  0.86707373  0.36531145  0.42109596     0.03800
C1742       C  0.83627163  0.37170755  0.42787814    -0.12400
C1743       C  0.80215937  0.34134293  0.43453002     0.01300
C1744       C  0.79811701  0.30463190  0.43142700    -0.10900
C1745       C  0.82833951  0.29741335  0.42975333     0.03800
C1746       C  0.86308297  0.32802101  0.42355472    -0.10300
H1747       H  0.83933169  0.40008892  0.42971637     0.09300
H1748       H  0.77172794  0.28145579  0.43602731     0.06900
H1749       H  0.88708913  0.32306742  0.42182559     0.06700
Zr1750     Zr  0.72013043  0.38938557  0.47246219     2.17500
O1751       O  0.75633424  0.42467511  0.42937038    -0.50700
O1752       O  0.76991047  0.43505009  0.50292441    -0.73900
O1753       O  0.69889652  0.43505347  0.45189626    -0.80700
O1754       O  0.75585285  0.31877245  0.47088393    -0.82400
O1755       O  0.63920748  0.41647166  0.46389468    -0.78100
O1756       O  0.76544618  0.37319361  0.44794233    -0.89700
O1757       O  0.76241633  0.41775041  0.05205283    -0.75700
O1758       O  0.68819870  0.40015388  0.01309512    -0.85100
O1759       O  0.73176379  0.36050397  0.01511527    -0.84800
O1760       O  0.65751176  0.35792538  0.45697972    -0.71600
O1761       O  0.69762110  0.32308527  0.46330813    -0.83700
Zr1762     Zr  0.61178460  0.27608753  0.03307469     2.26400
Zr1763     Zr  0.62540793  0.36826336  0.99933125     2.06300
Zr1764     Zr  0.70690422  0.29529101  0.50768369     2.10000
Zr1765     Zr  0.69959023  0.37117762  0.05605873     1.78800
O1766       O  0.72597647  0.24966017  0.48740419    -0.92500
O1767       O  0.70095390  0.42801559  0.07804119    -0.40300
O1768       O  0.67483058  0.30489047  0.04799741    -0.77000
O1769       O  0.63653743  0.34182996  0.04358248    -0.95700
O1770       O  0.60004119  0.30170519  0.48853950    -0.89000
O1771       O  0.64540833  0.26502254  0.49286526    -0.91800
C1772       C  0.78135749  0.43812015  0.03018605     1.01900
C1773       C  0.77278018  0.34528839  0.45196924     1.14900
C1774       C  0.66862342  0.43827532  0.45051287     1.05700
O1775       O  0.62909451  0.42275022  0.02692056    -0.94000
O1776       O  0.57376361  0.34807783  0.03264118    -0.89700
O1777       O  0.56093373  0.28954428  0.04916592    -0.82900
C1778       C  0.55447062  0.31844213  0.04760092     1.12300
O1779       O  0.61707737  0.25524509  0.40341426    -0.95900
Zr1780     Zr  0.63531392  0.29200055  0.44918676     1.88900
O1781       O  0.56663377  0.22477325  0.00455157    -0.72600
O1782       O  0.56964570  0.35486783  0.47101875    -0.51800
O1783       O  0.59824371  0.31450563  0.42104465    -0.96500
O1784       O  0.67949797  0.29052073  0.41209874    -0.53700
O1785       O  0.58985498  0.22731960  0.45622356    -0.73100
C1786       C  0.56649296  0.21050374  0.47708753     0.99200
O1787       O  0.59277886  0.25577095  0.08469308    -0.61900
O1788       O  0.75251696  0.30546220  0.04445894    -0.56700
O1789       O  0.61553029  0.21847489  0.04516593    -0.93400
O1790       O  0.67349510  0.23416256  0.02953740    -0.91800
O1791       O  0.72907553  0.34770926  0.09176637    -0.92200
O1792       O  0.67187491  0.36627639  0.10564048    -0.91000
C1793       C  0.64228008  0.21055093  0.04010373     1.18100
H1794       H  0.75739979  0.36837698  0.01828505     0.34000
H1795       H  0.62401364  0.34595243  0.06069844     0.44900
H1796       H  0.63885829  0.23904062  0.48892571     0.38400
H1797       H  0.65431246  0.36863257  0.43856820     0.34900
H1798       H  0.72115609  0.43659473  0.09249527     0.26700
H1799       H  0.56204700  0.37404216  0.47810838     0.32600
H1800       H  0.57293883  0.29856659  0.42794164     0.38500
H1801       H  0.75222932  0.36951611  0.09664140     0.33000
H1802       H  0.74476271  0.28069509  0.05404072     0.31900
H1803       H  0.74540630  0.25078321  0.50088291     0.33500
H1804       H  0.69350676  0.27887543  0.42201504     0.32500
H1805       H  0.65694098  0.33911399  0.10876698     0.36500
H1806       H  0.61357756  0.25306384  0.09352333     0.29200
H1807       H  0.76599101  0.45132204  0.43516904     0.33500
H1808       H  0.59125522  0.24972290  0.40040113     0.36300
H1809       H  0.77488747  0.30962707  0.03289874     0.28900
H1810       H  0.59291864  0.27794678  0.09497435     0.41800
H1811       H  0.63173590  0.41725337  0.04813509     0.31900
H1812       H  0.70998738  0.44679275  0.06170211     0.39500
H1813       H  0.69719228  0.31678181  0.40806719     0.31300
H1814       H  0.57787548  0.36207982  0.45001360     0.31400
H1815       H  0.73870406  0.42129870  0.41331835     0.31700
C1816       C  0.60961396  0.10667429  0.06143359     0.03800
C1817       C  0.63882356  0.10148411  0.04785133    -0.12400
C1818       C  0.66561978  0.13035551  0.03029925     0.01300
C1819       C  0.66311651  0.16360814  0.02714729    -0.10900
C1820       C  0.63765157  0.17148876  0.04308191     0.03800
C1821       C  0.60973278  0.14236882  0.05951498    -0.10300
H1822       H  0.64057887  0.07533076  0.05080561     0.09300
H1823       H  0.68350614  0.18501367  0.01323628     0.06900
H1824       H  0.58863397  0.14741479  0.07083864     0.06700
C1825       C  0.62970682  0.00176753  0.42169464     0.03800
C1826       C  0.63266730  0.46889246  0.42739706    -0.12400
C1827       C  0.66668205  0.47016181  0.43465817     0.01300
C1828       C  0.69722547  0.50442237  0.43373203    -0.10900
C1829       C  0.69471531  0.03830945  0.43163995     0.03800
C1830       C  0.66044026  0.03683966  0.42467408    -0.10300
H1831       H  0.60856239  0.44227833  0.42737592     0.09300
H1832       H  0.72316426  0.50475653  0.43881681     0.06900
H1833       H  0.65728052  0.06240741  0.42315812     0.06700
C1834       C  0.98816730  0.35279682  0.07801639     0.03800
C1835       C  0.52161298  0.35189819  0.07144056    -0.12400
C1836       C  0.52197559  0.31799307  0.06261395     0.01300
C1837       C  0.98887861  0.28454133  0.06195189    -0.10900
C1838       C  0.95552392  0.28608318  0.06615697     0.01000
C1839       C  0.95524761  0.32026955  0.07483103    -0.10300
H1840       H  0.54688472  0.37738766  0.07187068     0.09300
H1841       H  0.98939410  0.25915563  0.05353720     0.06900
H1842       H  0.92960620  0.32197815  0.07755354     0.06700
C1843       C  0.00250386  0.11538859  0.44484775     0.03800
C1844       C  0.96911737  0.11600407  0.45228196    -0.12400
C1845       C  0.96849892  0.14553719  0.46931503     0.01300
C1846       C  0.00079882  0.17411341  0.47911917    -0.10900
C1847       C  0.53418101  0.17563182  0.46930150     0.03800
C1848       C  0.53500768  0.14591712  0.45201931    -0.10300
H1849       H  0.94372302  0.09358542  0.44495739     0.09300
H1850       H  0.00104074  0.19776129  0.99028424     0.06900
H1851       H  0.56091249  0.14632908  0.44570962     0.06700
C1852       C  0.87607149  0.49445086  0.06259937     0.03800
C1853       C  0.84302193  0.46348980  0.05528564    -0.12400
C1854       C  0.81750074  0.46851274  0.03716837     0.01300
C1855       C  0.82539412  0.50407826  0.02675671    -0.10900
C1856       C  0.85661223  0.03544818  0.03555355     0.03800
C1857       C  0.88263187  0.03069664  0.05277509    -0.10300
H1858       H  0.83751802  0.43576308  0.06312292     0.09300
H1859       H  0.80551057  0.50768300  0.01316310     0.06900
H1860       H  0.90796813  0.05465445  0.05805003     0.06700
Zr1861     Zr  0.76860755  0.09696423  0.21657846     2.17500
O1862       O  0.73059004  0.06015111  0.17577224    -0.50700
O1863       O  0.72460051  0.05506620  0.25370725    -0.73900
O1864       O  0.78704601  0.04683986  0.19957046    -0.80700
O1865       O  0.73466111  0.16828403  0.21346055    -0.82400
O1866       O  0.84661254  0.06448570  0.21024163    -0.78100
O1867       O  0.71705572  0.10804355  0.19973856    -0.89700
O1868       O  0.72864875  0.08552145  0.29776691    -0.75700
O1869       O  0.79815718  0.08994179  0.25993390    -0.85100
O1870       O  0.76255443  0.13614472  0.25513213    -0.84800
O1871       O  0.83117095  0.12111794  0.20071799    -0.71600
O1872       O  0.79634958  0.16085634  0.19789795    -0.83700
Zr1873     Zr  0.88518056  0.21166568  0.26660282     2.26400
Zr1874     Zr  0.86056149  0.11338004  0.24445973     2.06300
Zr1875     Zr  0.79248797  0.19891193  0.23813400     2.10000
Zr1876     Zr  0.79173861  0.12904693  0.29829761     1.78800
O1877       O  0.79480263  0.24473402  0.20114679    -0.92500
O1878       O  0.78684845  0.07482017  0.32678934    -0.40300
O1879       O  0.82242554  0.19231479  0.28168572    -0.77000
O1880       O  0.85427922  0.14910645  0.28549559    -0.95700
O1881       O  0.89114995  0.17584780  0.22604949    -0.89000
O1882       O  0.85451520  0.22101180  0.22435862    -0.91800
C1883       C  0.71299320  0.05787400  0.28027625     1.01900
C1884       C  0.71144972  0.13734239  0.20223235     1.14900
C1885       C  0.81687762  0.04243823  0.19847403     1.05700
O1886       O  0.84584198  0.05501678  0.27095250    -0.94000
O1887       O  0.90669056  0.12493314  0.27972860    -0.89700
O1888       O  0.92680938  0.18713777  0.28793039    -0.82900
C1889       C  0.92889525  0.15568441  0.29104223     1.12300
O1890       O  0.84475510  0.15224902  0.13594737    -0.95900
Zr1891     Zr  0.85940495  0.18411794  0.18418123     1.88900
O1892       O  0.92964089  0.25322965  0.23024458    -0.72600
O1893       O  0.91728355  0.11938095  0.22107556    -0.51800
O1894       O  0.91039328  0.17624298  0.16161377    -0.96500
O1895       O  0.84197147  0.21977398  0.14890348    -0.53700
O1896       O  0.90845671  0.24571304  0.18261875    -0.73100
C1897       C  0.93189804  0.26292410  0.20251460     0.99200
O1898       O  0.92679097  0.25358224  0.30346852    -0.61900
O1899       O  0.74812713  0.21095877  0.26772720    -0.56700
O1900       O  0.87672702  0.26450135  0.28733927    -0.93400
O1901       O  0.82370084  0.25634642  0.26617444    -0.91800
O1902       O  0.76306909  0.16131174  0.32725045    -0.92200
O1903       O  0.81589029  0.14242677  0.34874559    -0.91000
C1904       C  0.85149703  0.27473872  0.28264178     1.18100
H1905       H  0.73731856  0.13027436  0.25917229     0.34000
H1906       H  0.86463653  0.14577107  0.30386452     0.44900
H1907       H  0.86364176  0.24715455  0.21929331     0.38400
H1908       H  0.83377805  0.10824206  0.18316386     0.34900
H1909       H  0.76587923  0.06884564  0.34074065     0.26700
H1910       H  0.91774912  0.09505816  0.22462830     0.32600
H1911       H  0.93148373  0.19066252  0.17447792     0.38500
H1912       H  0.73758057  0.15066966  0.32036913     0.33000
H1913       H  0.72582324  0.18692851  0.26824192     0.31900
H1914       H  0.81556212  0.26842993  0.20701820     0.33500
H1915       H  0.86263664  0.23065201  0.13439114     0.32500
H1916       H  0.83671505  0.16751247  0.34697676     0.36500
H1917       H  0.92263286  0.23843844  0.32193268     0.29200
H1918       H  0.72024765  0.03385932  0.18275823     0.33500
H1919       H  0.86132587  0.17048882  0.12113386     0.36300
H1920       H  0.75715666  0.21411240  0.28849958     0.28900
H1921       H  0.95158525  0.25848527  0.29630577     0.41800
H1922       H  0.84295800  0.06059101  0.29223884     0.31900
H1923       H  0.77822124  0.05384056  0.31234086     0.39500
H1924       H  0.84315274  0.24150785  0.16052425     0.31300
H1925       H  0.91358155  0.11990453  0.19922471     0.31400
H1926       H  0.74784265  0.06179858  0.15933404     0.31700
C1927       C  0.88110161  0.37401162  0.31430697     0.03800
C1928       C  0.88358959  0.34068098  0.30602606    -0.12400
C1929       C  0.85218941  0.30919160  0.29672671     0.01300
C1930       C  0.81891516  0.31106812  0.29795887    -0.10900
C1931       C  0.81638978  0.34468820  0.30183046     0.03800
C1932       C  0.84770519  0.37637001  0.31087106    -0.10300
H1933       H  0.90957441  0.33950791  0.30652304     0.09300
H1934       H  0.79440151  0.28584235  0.29355634     0.06900
H1935       H  0.84620246  0.40246718  0.31522704     0.06700
Zr1936     Zr  0.60498964  0.26806831  0.23428662     2.17500
O1937       O  0.56034494  0.23249190  0.19666160    -0.50700
O1938       O  0.56147830  0.22508335  0.27011131    -0.73900
O1939       O  0.61383018  0.21501530  0.21366004    -0.80700
O1940       O  0.58509981  0.35537061  0.22182182    -0.82400
O1941       O  0.66648908  0.22231207  0.23504335    -0.78100
O1942       O  0.56426944  0.29312077  0.21331906    -0.89700
O1943       O  0.58462263  0.23108898  0.31690303    -0.75700
O1944       O  0.63701591  0.25838356  0.27505886    -0.85100
O1945       O  0.59866499  0.30194079  0.27639930    -0.84800
O1946       O  0.66722671  0.29021992  0.21670697    -0.71600
O1947       O  0.63218190  0.33176488  0.21858574    -0.83700
Zr1948     Zr  0.72121519  0.38202302  0.28497657     2.26400
Zr1949     Zr  0.69879400  0.28253079  0.25897551     2.06300
Zr1950     Zr  0.62689619  0.36599705  0.26107621     2.10000
Zr1951     Zr  0.63237577  0.29340030  0.31669046     1.78800
O1952       O  0.64012061  0.42855266  0.24320867    -0.92500
O1953       O  0.65031186  0.25512245  0.34877101    -0.40300
O1954       O  0.65926553  0.35698049  0.30171930    -0.77000
O1955       O  0.69490937  0.31766420  0.30138462    -0.95700
O1956       O  0.72602868  0.34590103  0.24354349    -0.89000
O1957       O  0.68924405  0.39165250  0.24388815    -0.91800
C1958       C  0.56021139  0.21471732  0.29751669     1.01900
C1959       C  0.56260294  0.32473541  0.21041857     1.14900
C1960       C  0.63869953  0.20425183  0.21849941     1.05700
O1961       O  0.70260611  0.24007214  0.29630451    -0.94000
O1962       O  0.75906452  0.31485771  0.27959913    -0.89700
O1963       O  0.77392105  0.37218529  0.29939932    -0.82900
C1964       C  0.78105810  0.34445785  0.29337378     1.12300
O1965       O  0.67294107  0.39998283  0.18586350    -0.95900
Zr1966     Zr  0.69416490  0.35495990  0.20290858     1.88900
O1967       O  0.76520597  0.42275911  0.24829527    -0.72600
O1968       O  0.74107884  0.27243876  0.22509986    -0.51800
O1969       O  0.68224505  0.31596864  0.15815594    -0.96500
O1970       O  0.72610468  0.38640122  0.15693975    -0.53700
O1971       O  0.75902573  0.38229940  0.21129643    -0.73100
C1972       C  0.77521410  0.41454487  0.22295280     0.99200
O1973       O  0.75405876  0.41590983  0.32897231    -0.61900
O1974       O  0.57042326  0.36278822  0.28316244    -0.56700
O1975       O  0.70270482  0.43188661  0.29913749    -0.93400
O1976       O  0.64313892  0.39858505  0.30740982    -0.91800
O1977       O  0.58275792  0.30131801  0.34180755    -0.92200
O1978       O  0.64877868  0.32256975  0.36574238    -0.91000
C1979       C  0.67113505  0.42964675  0.30697543     1.18100
H1980       H  0.57335629  0.29397327  0.28188124     0.34000
H1981       H  0.70892974  0.31522926  0.31770496     0.44900
H1982       H  0.69885734  0.41786022  0.23883368     0.38400
H1983       H  0.66903817  0.27530435  0.20026995     0.34900
H1984       H  0.64955818  0.23458811  0.33575757     0.26700
H1985       H  0.72841910  0.26556162  0.20569342     0.32600
H1986       H  0.70363521  0.31057348  0.15582445     0.38500
H1987       H  0.56974548  0.27825722  0.35384517     0.33000
H1988       H  0.56747106  0.38406572  0.27440326     0.31900
H1989       H  0.61932359  0.43313004  0.25026035     0.33500
H1990       H  0.74693475  0.38013806  0.15447844     0.32500
H1991       H  0.67074063  0.34634984  0.36193104     0.36500
H1992       H  0.76652551  0.44244301  0.32263293     0.29200
H1993       H  0.54898964  0.20622094  0.20374521     0.33500
H1994       H  0.65568893  0.38689575  0.16967306     0.36300
H1995       H  0.55049917  0.34032954  0.27447307     0.28900
H1996       H  0.73498811  0.41471751  0.34354246     0.41800
H1997       H  0.68157100  0.21572090  0.29242425     0.31900
H1998       H  0.67646744  0.27023535  0.35287504     0.39500
H1999       H  0.73746155  0.41341671  0.16172079     0.31300
H2000       H  0.76109747  0.29768773  0.22147651     0.31400
H2001       H  0.57461210  0.23263626  0.17842835     0.31700
C2002       C  0.62429180  0.99228315  0.31892454     0.03800
C2003       C  0.63176114  0.46245972  0.32082350    -0.12400
C2004       C  0.66496423  0.46346981  0.30957416     0.01300
C2005       C  0.69030675  0.99424292  0.29720652    -0.10900
C2006       C  0.68332376  0.02502935  0.29352413     0.03800
C2007       C  0.65087777  0.02476670  0.30505494    -0.10300
H2008       H  0.61155456  0.43721016  0.33132914     0.09300
H2009       H  0.71495752  0.49629273  0.28578570     0.06900
H2010       H  0.64624099  0.04943688  0.30290455     0.06700
C2011       C  0.99115195  0.11925928  0.32675576     0.03800
C2012       C  0.95873387  0.12116506  0.31861410    -0.12400
C2013       C  0.96002300  0.15461918  0.30640061     0.01300
C2014       C  0.99336528  0.18543643  0.30276775    -0.10900
C2015       C  0.52677955  0.18363613  0.30759478     0.03800
C2016       C  0.52611847  0.15091341  0.31977323    -0.10300
H2017       H  0.93291673  0.09648308  0.32074371     0.09300
H2018       H  0.99478466  0.21065610  0.29235668     0.06900
H2019       H  0.55146154  0.14929247  0.32392443     0.06700
C2020       C  0.99771409  0.36048724  0.17940900     0.03800
C2021       C  0.53103649  0.35955984  0.18610190    -0.12400
C2022       C  0.53092961  0.32572118  0.19599692     0.01300
C2023       C  0.99745138  0.29330817  0.19879166    -0.10900
C2024       C  0.96493602  0.29491413  0.19304124     0.03800
C2025       C  0.96476790  0.32798531  0.18248246    -0.10300
H2026       H  0.55641227  0.38485318  0.18462058     0.09300
H2027       H  0.99668173  0.26763465  0.20772048     0.06900
H2028       H  0.93911664  0.32885565  0.17814781     0.06700
C2029       C  0.61035047  0.10679018  0.18322972     0.03800
C2030       C  0.64436548  0.10519189  0.18500713    -0.12400
C2031       C  0.67559624  0.13679661  0.19448229     0.01300
C2032       C  0.67202842  0.16950748  0.20081897    -0.10900
C2033       C  0.63832708  0.17035658  0.20353114     0.03800
C2034       C  0.60720547  0.13906448  0.19363188    -0.10300
H2035       H  0.64637278  0.07970995  0.17912581     0.09300
H2036       H  0.69611568  0.19481992  0.20587917     0.06900
H2037       H  0.58092208  0.13962227  0.19417209     0.06700
C2038       C  0.85982503  0.47835205  0.17847290     0.03800
C2039       C  0.85135721  0.00987362  0.17523847    -0.12400
C2040       C  0.81809136  0.00837014  0.18690265     0.01300
C2041       C  0.79332327  0.47509649  0.20054986    -0.10900
C2042       C  0.80139884  0.44492639  0.20458989     0.03800
C2043       C  0.83402733  0.44572441  0.19281042    -0.10300
H2044       H  0.87210550  0.03608628  0.16648712     0.09300
H2045       H  0.76861141  0.47440958  0.21061027     0.06900
H2046       H  0.83991861  0.42196924  0.19597356     0.06700
C2047       C  0.99289069  0.48660104  0.09650094     0.46100
H2048       H  0.99332994  0.48617446  0.07157873    -0.02900
C2049       C  0.99132152  0.48712685  0.15518411     0.46100
H2050       H  0.99068367  0.48719846  0.18010396    -0.02900
C2051       C  0.95832069  0.48768228  0.11016544    -0.16600
C2052       C  0.99361220  0.45161454  0.11094589    -0.16400
C2053       C  0.52625177  0.02115420  0.10943780    -0.16800
C2054       C  0.95696867  0.48739928  0.14090792    -0.16700
C2055       C  0.99364437  0.45237515  0.14164094    -0.16300
C2056       C  0.52494947  0.02169319  0.14028440    -0.16600
C2057       C  0.92439683  0.48442381  0.15766714    -0.12600
C2058       C  0.89523753  0.48124574  0.16798421    -0.14200
C2059       C  0.55351280  0.05053148  0.15801229    -0.12600
C2060       C  0.57885769  0.07555731  0.17054908    -0.14200
C2061       C  0.99559982  0.42243442  0.15919097    -0.12600
C2062       C  0.99730917  0.39510613  0.16959556    -0.14200
C2063       C  0.92905761  0.48799171  0.09215149    -0.12600
C2064       C  0.90423910  0.48966108  0.07875999    -0.14200
C2065       C  0.99116799  0.41869270  0.09450115    -0.12600
C2066       C  0.98875583  0.38869750  0.08574027    -0.14200
C2067       C  0.58014269  0.07585365  0.07774179    -0.12600
C2068       C  0.55545831  0.05046920  0.09143995    -0.14200
C2069       C  0.90277273  0.39720331  0.41363783    -0.12600
C2070       C  0.93111009  0.42405713  0.40529058    -0.14200
C2071       C  0.99853166  0.05544440  0.41418917    -0.12600
C2072       C  0.00192745  0.08312654  0.42838530    -0.14200
C2073       C  0.59371834  0.99858021  0.41450660    -0.12600
C2074       C  0.56306867  0.49380640  0.40646462    -0.14200
C2075       C  0.91238254  0.40549040  0.32682868    -0.12600
C2076       C  0.93696996  0.43059690  0.33992736    -0.14200
C2077       C  0.99086300  0.08490479  0.33820356    -0.12600
C2078       C  0.49355602  0.05767698  0.34692233    -0.14200
C2079       C  0.56222223  0.99117170  0.34120514    -0.12600
C2080       C  0.58993971  0.99144044  0.33013228    -0.14200
C2081       C  0.49719264  0.99299011  0.84805528     0.46100
H2082       H  0.49774770  0.99481605  0.82317999    -0.02900
C2083       C  0.99494402  0.48763414  0.90507855     0.46100
H2084       H  0.99434905  0.48570068  0.92994061    -0.02900
C2085       C  0.53159985  0.99165983  0.86102077    -0.16600
C2086       C  0.49450413  0.02657654  0.86393530    -0.16400
C2087       C  0.96402656  0.45750036  0.85880187    -0.16800
C2088       C  0.53105785  0.48954073  0.89048774    -0.16700
C2089       C  0.99480537  0.02363838  0.89367316    -0.16300
C2090       C  0.96225448  0.45459439  0.88952384    -0.16600
Zr2091     Zr  0.88075950  0.16286695  0.53021266     2.17500
O2092       O  0.91026241  0.16385406  0.57750775    -0.50700
O2093       O  0.93062488  0.15962329  0.50196278    -0.73900
O2094       O  0.87253996  0.10034338  0.54366187    -0.80700
O2095       O  0.89892725  0.26475615  0.54175857    -0.82400
O2096       O  0.84758051  0.07360543  0.50034615    -0.78100
O2097       O  0.92202482  0.22340326  0.55079582    -0.89700
O2098       O  0.91651465  0.15145974  0.95165877    -0.75700
O2099       O  0.86328304  0.13154568  0.98289683    -0.85100
O2100       O  0.89176891  0.20913891  0.99188282    -0.84800
O2101       O  0.81720738  0.12170377  0.53907567    -0.71600
O2102       O  0.84454783  0.19465764  0.54376045    -0.83700
Zr2103     Zr  0.77159965  0.16552575  0.96450121     2.26400
Zr2104     Zr  0.80079693  0.09088960  0.98923495     2.06300
Zr2105     Zr  0.85377307  0.23758560  0.50373769     2.10000
Zr2106     Zr  0.87208964  0.17618527  0.94555563     1.78800
O2107       O  0.82535592  0.27465629  0.52583218    -0.92500
O2108       O  0.86465074  0.13483843  0.90287069    -0.40300
O2109       O  0.83368904  0.19963624  0.96418263    -0.77000
O2110       O  0.80834063  0.13423688  0.94927811    -0.95700
O2111       O  0.76220934  0.12142891  0.50379595    -0.89000
O2112       O  0.78951739  0.19896675  0.51078819    -0.91800
C2113       C  0.93630822  0.15197595  0.97380254     1.01900
C2114       C  0.92271806  0.25600347  0.55286935     1.14900
C2115       C  0.85988416  0.07207216  0.52612596     1.05700
O2116       O  0.79830426  0.04052700  0.95658067    -0.94000
O2117       O  0.74887593  0.06444952  0.95835554    -0.89700
O2118       O  0.72999549  0.10586968  0.94029109    -0.82900
C2119       C  0.72688781  0.07231639  0.94329272     1.12300
O2120       O  0.80059456  0.17802460  0.59976016    -0.95900
Zr2121     Zr  0.78076559  0.15398059  0.54961891     1.88900
O2122       O  0.71655694  0.15176576  0.99596621    -0.72600
O2123       O  0.76040209  0.04557133  0.53009876    -0.51800
O2124       O  0.75732162  0.09928454  0.58242029    -0.96500
O2125       O  0.75249476  0.19057662  0.57319612    -0.53700
O2126       O  0.71705112  0.12015583  0.53802915    -0.73100
C2127       C  0.70057627  0.13226598  0.52025997     0.99200
O2128       O  0.73565467  0.17107679  0.92326916    -0.61900
O2129       O  0.89330888  0.30256942  0.99520452    -0.56700
O2130       O  0.79332311  0.23209952  0.94545386    -0.93400
O2131       O  0.85220491  0.26505755  0.95835149    -0.91800
O2132       O  0.92775272  0.23230392  0.93366345    -0.92200
O2133       O  0.87020562  0.20416199  0.89761187    -0.91000
C2134       C  0.82438062  0.26210770  0.94417422     1.18100
H2135       H  0.91700916  0.22734644  0.99098180     0.34000
H2136       H  0.80031259  0.12150232  0.93041883     0.44900
H2137       H  0.77590098  0.21315737  0.51461096     0.38400
H2138       H  0.81450401  0.10450473  0.55515434     0.34900
H2139       H  0.88970544  0.14090812  0.89564614     0.26700
H2140       H  0.74608409  0.02201874  0.51922911     0.32600
H2141       H  0.73523533  0.09908352  0.59211360     0.38500
H2142       H  0.94668955  0.22334800  0.93065512     0.33000
H2143       H  0.89358246  0.31652853  0.01373403     0.31900
H2144       H  0.82004690  0.28683459  0.50850807     0.33500
H2145       H  0.73294861  0.17260360  0.58638142     0.32500
H2146       H  0.84428996  0.19880989  0.89550047     0.36500
H2147       H  0.72658893  0.18926007  0.93006869     0.29200
H2148       H  0.92959055  0.15608684  0.57223624     0.33500
H2149       H  0.78222082  0.16033199  0.61388586     0.36300
H2150       H  0.91805632  0.30386770  0.99353201     0.28900
H2151       H  0.75318021  0.18373422  0.90671913     0.41800
H2152       H  0.78208693  0.01705672  0.96702382     0.31900
H2153       H  0.85571422  0.10951516  0.91170064     0.39500
H2154       H  0.73921681  0.19631893  0.55721569     0.31300
H2155       H  0.77728226  0.04009888  0.54256440     0.31400
H2156       H  0.89219300  0.14282572  0.58949534     0.31700
C2157       C  0.86646076  0.36511170  0.91992711     0.03800
C2158       C  0.83530153  0.37123577  0.92574688    -0.12400
C2159       C  0.80123486  0.34073992  0.93232807     0.01300
C2160       C  0.79765117  0.30412571  0.92977813    -0.10900
C2161       C  0.82820326  0.29739268  0.92928745     0.03800
C2162       C  0.86285501  0.32810194  0.92325870    -0.10300
H2163       H  0.83808788  0.39954853  0.92715917     0.09300
H2164       H  0.77133057  0.28082080  0.93434336     0.06900
H2165       H  0.88709574  0.32348977  0.92250783     0.06700
Zr2166     Zr  0.72051241  0.38961687  0.97200865     2.17500
O2167       O  0.75857738  0.42643383  0.93024711    -0.50700
O2168       O  0.77036484  0.43471185  0.00282626    -0.73900
O2169       O  0.69951278  0.43524324  0.95097343    -0.80700
O2170       O  0.75520190  0.31823107  0.96896391    -0.82400
O2171       O  0.64029205  0.41765710  0.96411763    -0.78100
O2172       O  0.76457953  0.37260710  0.94612049    -0.89700
O2173       O  0.76175721  0.41821533  0.55215865    -0.75700
O2174       O  0.68720202  0.39970621  0.51307785    -0.85100
O2175       O  0.73135299  0.36054779  0.51577155    -0.84800
O2176       O  0.65765127  0.35852997  0.95706670    -0.71600
O2177       O  0.69732703  0.32335171  0.96232265    -0.83700
Zr2178     Zr  0.61122472  0.27551875  0.53286928     2.26400
Zr2179     Zr  0.62457360  0.36714789  0.49893597     2.06300
Zr2180     Zr  0.70702455  0.29537773  0.00647849     2.10000
Zr2181     Zr  0.69886632  0.37136157  0.55625809     1.78800
O2182       O  0.72529160  0.24915888  0.98612594    -0.92500
O2183       O  0.69786385  0.42789843  0.57668672    -0.40300
O2184       O  0.67401296  0.30493419  0.54854644    -0.77000
O2185       O  0.63584222  0.34122493  0.54345711    -0.95700
O2186       O  0.60026028  0.30265521  0.98904791    -0.89000
O2187       O  0.64510767  0.26532125  0.99255841    -0.91800
C2188       C  0.78086316  0.43847715  0.53028952     1.01900
C2189       C  0.77187825  0.34463579  0.94990423     1.14900
C2190       C  0.66946353  0.43895444  0.95013078     1.05700
O2191       O  0.62515042  0.42117119  0.52523984    -0.94000
O2192       O  0.57360726  0.34805087  0.53263172    -0.89700
O2193       O  0.55996271  0.28886824  0.54787855    -0.82900
C2194       C  0.55388810  0.31804572  0.54692353     1.12300
O2195       O  0.61322584  0.25773193  0.90274707    -0.95900
Zr2196     Zr  0.63456339  0.29246333  0.94919411     1.88900
O2197       O  0.56715670  0.22398791  0.50355626    -0.72600
O2198       O  0.57069910  0.35962644  0.97258884    -0.51800
O2199       O  0.59945212  0.31707855  0.92068035    -0.96500
O2200       O  0.67704727  0.28564320  0.91314282    -0.53700
O2201       O  0.58825784  0.22823842  0.95685968    -0.73100
C2202       C  0.56537703  0.21137000  0.97800267     0.99200
O2203       O  0.59173810  0.25581813  0.58451775    -0.61900
O2204       O  0.75126129  0.30447815  0.54647831    -0.56700
O2205       O  0.61448561  0.21796708  0.54582137    -0.93400
O2206       O  0.67243823  0.23375248  0.53015677    -0.91800
O2207       O  0.72917819  0.34867323  0.59186544    -0.92200
O2208       O  0.67348223  0.36720048  0.60664726    -0.91000
C2209       C  0.64120256  0.21004407  0.54064420     1.18100
H2210       H  0.75697866  0.36854970  0.51907692     0.34000
H2211       H  0.62320703  0.34523466  0.56054513     0.44900
H2212       H  0.63833479  0.23928919  0.98862708     0.38400
H2213       H  0.65448991  0.36937654  0.93872600     0.34900
H2214       H  0.71926892  0.43877937  0.58988451     0.26700
H2215       H  0.56660099  0.38166670  0.97799509     0.32600
H2216       H  0.57386668  0.30172727  0.92718984     0.38500
H2217       H  0.75446430  0.36856459  0.59299348     0.33000
H2218       H  0.74489634  0.27904285  0.55420351     0.31900
H2219       H  0.74475661  0.25007434  0.99947894     0.33500
H2220       H  0.69032451  0.27399946  0.92413599     0.32500
H2221       H  0.65639301  0.34044107  0.60915023     0.36500
H2222       H  0.61303438  0.25469328  0.59390131     0.29200
H2223       H  0.76692398  0.45291445  0.93613558     0.33500
H2224       H  0.58650223  0.24909247  0.90261652     0.36300
H2225       H  0.77459419  0.31167194  0.53538915     0.28900
H2226       H  0.59036299  0.27758667  0.59427155     0.41800
H2227       H  0.62994206  0.41757047  0.54639210     0.31900
H2228       H  0.70435846  0.44552070  0.55957336     0.39500
H2229       H  0.69555211  0.31114649  0.90780425     0.31300
H2230       H  0.57790116  0.36328294  0.95110169     0.31400
H2231       H  0.74177112  0.42253598  0.91343010     0.31700
C2232       C  0.60889179  0.10610236  0.56147978     0.03800
C2233       C  0.63844594  0.10130800  0.54814713    -0.12400
C2234       C  0.66512777  0.13036929  0.53069291     0.01300
C2235       C  0.66211868  0.16331139  0.52727800    -0.10900
C2236       C  0.63657460  0.17095873  0.54330301     0.03800
C2237       C  0.60872317  0.14166058  0.55961507    -0.10300
H2238       H  0.64057367  0.07536617  0.55124056     0.09300
H2239       H  0.68235111  0.18479182  0.51329733     0.06900
H2240       H  0.58748894  0.14648523  0.57093018     0.06700
C2241       C  0.62998303  0.00275277  0.92302883     0.03800
C2242       C  0.63352195  0.46973534  0.92724027    -0.12400
C2243       C  0.66756056  0.47087106  0.93423216     0.01300
C2244       C  0.69816111  0.50512211  0.93324442    -0.10900
C2245       C  0.69549632  0.03843130  0.93145181     0.03800
C2246       C  0.66138173  0.03748683  0.92469140    -0.10300
H2247       H  0.60938534  0.44315155  0.92726999     0.09300
H2248       H  0.72411850  0.50540761  0.93817745     0.06900
H2249       H  0.65889111  0.06333486  0.92235830     0.06700
C2250       C  0.98805550  0.35355396  0.57769905     0.03800
C2251       C  0.52097959  0.35116206  0.57123697    -0.12400
C2252       C  0.52135712  0.31746681  0.56184258     0.01300
C2253       C  0.98857946  0.28539799  0.56098535    -0.10900
C2254       C  0.95527531  0.28694180  0.56539519     0.01000
C2255       C  0.95505967  0.32111741  0.57427435    -0.10300
H2256       H  0.54623534  0.37665097  0.57188422     0.09300
H2257       H  0.98906489  0.26007656  0.55237926     0.06900
H2258       H  0.92944499  0.32286187  0.57710065     0.06700
C2259       C  0.00220299  0.11502834  0.94384439     0.03800
C2260       C  0.96913722  0.11677119  0.95067416    -0.12400
C2261       C  0.96907477  0.14664040  0.96765100     0.01300
C2262       C  0.00158554  0.17446996  0.97782768    -0.10900
C2263       C  0.53301590  0.17639620  0.97057564     0.03800
C2264       C  0.53362863  0.14678135  0.95299212    -0.10300
H2265       H  0.94357489  0.09490769  0.94305481     0.09300
H2266       H  0.99983631  0.19714798  0.49166336     0.06900
H2267       H  0.55946040  0.14743502  0.94610903     0.06700
C2268       C  0.87595896  0.49459163  0.56245489     0.03800
C2269       C  0.84274769  0.46367584  0.55527814    -0.12400
C2270       C  0.81717287  0.46875807  0.53722137     0.01300
C2271       C  0.82531212  0.50428204  0.52656477    -0.10900
C2272       C  0.85601950  0.03539329  0.53591425     0.03800
C2273       C  0.88186778  0.03070344  0.55341696    -0.10300
H2274       H  0.83714744  0.43595409  0.56319065     0.09300
H2275       H  0.80560704  0.50786632  0.51272693     0.06900
H2276       H  0.90676563  0.05480032  0.55938249     0.06700
Zr2277     Zr  0.76851271  0.09710334  0.71552997     2.17500
O2278       O  0.73385456  0.06237899  0.67252700    -0.50700
O2279       O  0.72348458  0.05477090  0.75197514    -0.73900
O2280       O  0.78758831  0.04664552  0.70032701    -0.80700
O2281       O  0.73469742  0.16893556  0.71238326    -0.82400
O2282       O  0.84792497  0.06615394  0.70909374    -0.78100
O2283       O  0.71643992  0.10827206  0.69963544    -0.89700
O2284       O  0.72832531  0.08460836  0.79649320    -0.75700
O2285       O  0.79801935  0.09002805  0.75885781    -0.85100
O2286       O  0.76228982  0.13599049  0.75426134    -0.84800
O2287       O  0.83121289  0.12174190  0.70011333    -0.71600
O2288       O  0.79675698  0.16106021  0.69694719    -0.83700
Zr2289     Zr  0.88529053  0.21181191  0.76636629     2.26400
Zr2290     Zr  0.86063887  0.11404771  0.74388226     2.06300
Zr2291     Zr  0.79248808  0.19879346  0.73727473     2.10000
Zr2292     Zr  0.79131366  0.12859664  0.79746084     1.78800
O2293       O  0.79512912  0.24455250  0.70013010    -0.92500
O2294       O  0.79094777  0.07528905  0.82458264    -0.40300
O2295       O  0.82223697  0.19189421  0.78091905    -0.77000
O2296       O  0.85416333  0.14938729  0.78518105    -0.95700
O2297       O  0.89162753  0.17651617  0.72571861    -0.89000
O2298       O  0.85482719  0.22137379  0.72401039    -0.91800
C2299       C  0.71215056  0.05736636  0.77872521     1.01900
C2300       C  0.71114194  0.13784140  0.70166525     1.14900
C2301       C  0.81781776  0.04293560  0.69868836     1.05700
O2302       O  0.84625699  0.05505727  0.76926231    -0.94000
O2303       O  0.90529093  0.12413110  0.78014410    -0.89700
O2304       O  0.92764902  0.18693400  0.78605104    -0.82900
C2305       C  0.92892602  0.15513915  0.78990456     1.12300
O2306       O  0.84871408  0.15559476  0.63445154    -0.95900
Zr2307     Zr  0.86011476  0.18484906  0.68377826     1.88900
O2308       O  0.93012157  0.25475630  0.73081699    -0.72600
O2309       O  0.91829031  0.12294631  0.72042040    -0.51800
O2310       O  0.91017036  0.17492469  0.66164375    -0.96500
O2311       O  0.84293460  0.22199452  0.64979167    -0.53700
O2312       O  0.91006641  0.24598078  0.68277041    -0.73100
C2313       C  0.93287642  0.26389125  0.70291229     0.99200
O2314       O  0.92455785  0.25154816  0.80542367    -0.61900
O2315       O  0.74739738  0.21129930  0.76539814    -0.56700
O2316       O  0.87650219  0.26431411  0.78696650    -0.93400
O2317       O  0.82321765  0.25577091  0.76599422    -0.91800
O2318       O  0.76191295  0.15997044  0.82653189    -0.92200
O2319       O  0.80867491  0.14045392  0.84987007    -0.91000
C2320       C  0.85101185  0.27419489  0.78246452     1.18100
H2321       H  0.73705758  0.13017210  0.75827114     0.34000
H2322       H  0.86466994  0.14623473  0.80352335     0.44900
H2323       H  0.86398706  0.24753237  0.71898215     0.38400
H2324       H  0.83369495  0.10880065  0.68252363     0.34900
H2325       H  0.76909157  0.06658321  0.83788892     0.26700
H2326       H  0.92143320  0.10055565  0.72614106     0.32600
H2327       H  0.93188125  0.19087723  0.67334588     0.38500
H2328       H  0.73935832  0.15495747  0.81559189     0.33000
H2329       H  0.72498035  0.18735629  0.76583135     0.31900
H2330       H  0.81434951  0.26869235  0.70712277     0.33500
H2331       H  0.86349920  0.23309518  0.63521733     0.32500
H2332       H  0.83548274  0.14988006  0.84965484     0.36500
H2333       H  0.91983399  0.23505167  0.82313101     0.29200
H2334       H  0.72206673  0.03591873  0.67912872     0.33500
H2335       H  0.86435699  0.17543044  0.62026466     0.36300
H2336       H  0.75587473  0.21469181  0.78633631     0.28900
H2337       H  0.94975712  0.25738258  0.79879050     0.41800
H2338       H  0.86753710  0.04991715  0.76518012     0.31900
H2339       H  0.78483927  0.05513128  0.80954464     0.39500
H2340       H  0.84457705  0.24352184  0.66194651     0.31300
H2341       H  0.91360275  0.12004858  0.69861811     0.31400
H2342       H  0.75239413  0.06371404  0.65736405     0.31700
C2343       C  0.88024317  0.37295968  0.81462724     0.03800
C2344       C  0.88293124  0.33994572  0.80577653    -0.12400
C2345       C  0.85147287  0.30825147  0.79692762     0.01300
C2346       C  0.81797678  0.30955710  0.79903049    -0.10900
C2347       C  0.81515103  0.34295676  0.80333030     0.03800
C2348       C  0.84650575  0.37482968  0.81208876    -0.10300
H2349       H  0.90910194  0.33913382  0.80555870     0.09300
H2350       H  0.79356503  0.28418917  0.79472238     0.06900
H2351       H  0.84482933  0.40078161  0.81671581     0.06700
Zr2352     Zr  0.60490206  0.26878642  0.73410477     2.17500
O2353       O  0.55814890  0.23213141  0.69831833    -0.50700
O2354       O  0.56184103  0.22442656  0.76952604    -0.73900
O2355       O  0.61452585  0.21684412  0.71210887    -0.80700
O2356       O  0.58464513  0.35578162  0.72164913    -0.82400
O2357       O  0.66523910  0.22183810  0.73561646    -0.78100
O2358       O  0.56516403  0.29398319  0.71184765    -0.89700
O2359       O  0.58253345  0.23172892  0.81725408    -0.75700
O2360       O  0.63611031  0.25845192  0.77508646    -0.85100
O2361       O  0.59823882  0.30266256  0.77614819    -0.84800
O2362       O  0.66725585  0.29087570  0.71694062    -0.71600
O2363       O  0.63241260  0.33266875  0.71853866    -0.83700
Zr2364     Zr  0.72094382  0.38160403  0.78560731     2.26400
Zr2365     Zr  0.69794000  0.28208143  0.75931865     2.06300
Zr2366     Zr  0.62694058  0.36688323  0.76089351     2.10000
Zr2367     Zr  0.63135840  0.29340062  0.81669955     1.78800
O2368       O  0.64268817  0.42983377  0.74244815    -0.92500
O2369       O  0.64767807  0.25339934  0.84828801    -0.40300
O2370       O  0.65869642  0.35695212  0.80170875    -0.77000
O2371       O  0.69395176  0.31711169  0.80175861    -0.95700
O2372       O  0.72591702  0.34560535  0.74412813    -0.89000
O2373       O  0.68960075  0.39228902  0.74452505    -0.91800
C2374       C  0.55947245  0.21442390  0.79713811     1.01900
C2375       C  0.56297188  0.32533737  0.70937397     1.14900
C2376       C  0.63840270  0.20500236  0.71788824     1.05700
O2377       O  0.70102365  0.23806351  0.79553849    -0.94000
O2378       O  0.75750458  0.31284668  0.78152769    -0.89700
O2379       O  0.77316881  0.37091007  0.80014155    -0.82900
C2380       C  0.77978006  0.34267218  0.79489777     1.12300
O2381       O  0.67773782  0.40433515  0.68712499    -0.95900
Zr2382     Zr  0.69463373  0.35578851  0.70350022     1.88900
O2383       O  0.76512261  0.42259733  0.74894602    -0.72600
O2384       O  0.73884853  0.27185169  0.72396996    -0.51800
O2385       O  0.67926520  0.31725210  0.65839292    -0.96500
O2386       O  0.72752595  0.38504182  0.65724282    -0.53700
O2387       O  0.75930129  0.38198559  0.71223657    -0.73100
C2388       C  0.77537217  0.41434002  0.72371187     0.99200
O2389       O  0.75516458  0.41536235  0.82911734    -0.61900
O2390       O  0.57133875  0.36727319  0.78161809    -0.56700
O2391       O  0.70216527  0.43102877  0.80080695    -0.93400
O2392       O  0.64230614  0.39802107  0.80791360    -0.91800
O2393       O  0.58276075  0.30243718  0.84248882    -0.92200
O2394       O  0.65029143  0.32239535  0.86553630    -0.91000
C2395       C  0.67047924  0.42895259  0.80807997     1.18100
H2396       H  0.57288302  0.29480459  0.78142943     0.34000
H2397       H  0.70763749  0.31438954  0.81821822     0.44900
H2398       H  0.69971603  0.41863911  0.73985701     0.38400
H2399       H  0.66930513  0.27625269  0.70038618     0.34900
H2400       H  0.64603062  0.23265772  0.83509614     0.26700
H2401       H  0.73074964  0.27539181  0.70392443     0.32600
H2402       H  0.69931134  0.30987438  0.65539143     0.38500
H2403       H  0.57252124  0.28181913  0.85731165     0.33000
H2404       H  0.56889318  0.38804711  0.77138781     0.31900
H2405       H  0.62395294  0.43663300  0.75114286     0.33500
H2406       H  0.74746606  0.37737535  0.65511080     0.32500
H2407       H  0.67505834  0.34272086  0.86197257     0.36500
H2408       H  0.76666596  0.44202449  0.82306089     0.29200
H2409       H  0.54807291  0.20588564  0.70537035     0.33500
H2410       H  0.65994453  0.39242485  0.67103062     0.36300
H2411       H  0.55098807  0.34434977  0.77398555     0.28900
H2412       H  0.73646648  0.41328206  0.84438957     0.41800
H2413       H  0.67832454  0.21479821  0.79287526     0.31900
H2414       H  0.67399658  0.26764410  0.85221951     0.39500
H2415       H  0.74005334  0.41216196  0.66154052     0.31300
H2416       H  0.76279185  0.29368172  0.72632647     0.31400
H2417       H  0.57137699  0.23274522  0.67934591     0.31700
C2418       C  0.62398854  0.99307175  0.81915119     0.03800
C2419       C  0.63160127  0.46253563  0.82144203    -0.12400
C2420       C  0.66457754  0.46296779  0.81022844     0.01300
C2421       C  0.68889781  0.99370965  0.79581162    -0.10900
C2422       C  0.68215020  0.02464093  0.79199071     0.03800
C2423       C  0.65024368  0.02501635  0.80430774    -0.10300
H2424       H  0.61134303  0.43762431  0.83232127     0.09300
H2425       H  0.71437764  0.49484043  0.78583648     0.06900
H2426       H  0.64588351  0.04985684  0.80221449     0.06700
C2427       C  0.99185868  0.11834243  0.82423780     0.03800
C2428       C  0.95939336  0.12055888  0.81669759    -0.12400
C2429       C  0.96072072  0.15378004  0.80393607     0.01300
C2430       C  0.99423260  0.18388574  0.79875343    -0.10900
C2431       C  0.52604638  0.18276589  0.80650038     0.03800
C2432       C  0.52545441  0.15037648  0.81933951    -0.10300
H2433       H  0.93342644  0.09631392  0.81990895     0.09300
H2434       H  0.99562142  0.20887529  0.78795661     0.06900
H2435       H  0.55082029  0.14916217  0.82421902     0.06700
C2436       C  0.99843467  0.36132950  0.67899051     0.03800
C2437       C  0.53091936  0.35939166  0.68460722    -0.12400
C2438       C  0.53127489  0.32582517  0.69458622     0.01300
C2439       C  0.99848650  0.29409788  0.69781684    -0.10900
C2440       C  0.96583081  0.29599040  0.69334442     0.03800
C2441       C  0.96547865  0.32911463  0.68315889    -0.10300
H2442       H  0.55611062  0.38488486  0.68314058     0.09300
H2443       H  0.99785753  0.26840180  0.70653562     0.06900
H2444       H  0.93973743  0.33019545  0.67977412     0.06700
C2445       C  0.61007894  0.10774938  0.68246727     0.03800
C2446       C  0.64404262  0.10605759  0.68434892    -0.12400
C2447       C  0.67531774  0.13754570  0.69392346     0.01300
C2448       C  0.67182377  0.17033893  0.70026573    -0.10900
C2449       C  0.63813240  0.17132521  0.70267550     0.03800
C2450       C  0.60700291  0.14011615  0.69269870    -0.10300
H2451       H  0.64595120  0.08050420  0.67856200     0.09300
H2452       H  0.69586877  0.19556321  0.70567007     0.06900
H2453       H  0.58074239  0.14073655  0.69320028     0.06700
C2454       C  0.85928005  0.47733317  0.67799441     0.03800
C2455       C  0.85236615  0.00981557  0.67632712    -0.12400
C2456       C  0.81933001  0.00849720  0.68837619     0.01300
C2457       C  0.79352651  0.47493444  0.70101260    -0.10900
C2458       C  0.80146660  0.44466165  0.70515513     0.03800
C2459       C  0.83376166  0.44507946  0.69294799    -0.10300
H2460       H  0.87280667  0.03580383  0.66696165     0.09300
H2461       H  0.76915540  0.47463386  0.71142441     0.06900
H2462       H  0.83966506  0.42136021  0.69628107     0.06700
C2463       C  0.99339103  0.48746010  0.59664549     0.46100
H2464       H  0.99406968  0.48710123  0.57172716    -0.02900
C2465       C  0.99128921  0.48777167  0.65532347     0.46100
H2466       H  0.99039968  0.48773202  0.68024456    -0.02900
C2467       C  0.95856006  0.48825300  0.61007494    -0.16600
C2468       C  0.99416238  0.45251385  0.61111148    -0.16400
C2469       C  0.52542357  0.02107200  0.60961908    -0.16800
C2470       C  0.95695293  0.48776023  0.64081308    -0.16700
C2471       C  0.99400355  0.45321820  0.64180523    -0.16300
C2472       C  0.52477514  0.02148097  0.64047256    -0.16600
C2473       C  0.92403559  0.48397755  0.65737403    -0.12600
C2474       C  0.89466562  0.48025066  0.66754987    -0.14200
C2475       C  0.55327108  0.05077856  0.65790763    -0.12600
C2476       C  0.57851957  0.07629337  0.67010657    -0.14200
C2477       C  0.99601130  0.42332280  0.65934247    -0.12600
C2478       C  0.99785173  0.39597553  0.66953527    -0.14200
C2479       C  0.92920521  0.48828498  0.59191628    -0.12600
C2480       C  0.90424999  0.48979088  0.57854257    -0.14200
C2481       C  0.99158306  0.41952862  0.59467411    -0.12600
C2482       C  0.98887012  0.38946901  0.58577162    -0.14200
C2483       C  0.57942520  0.07518121  0.57765693    -0.12600
C2484       C  0.55460194  0.05004352  0.59141077    -0.14200
C2485       C  0.90221974  0.39703665  0.91291038    -0.12600
C2486       C  0.93077587  0.42374310  0.90484318    -0.14200
C2487       C  0.99804391  0.05501432  0.91306832    -0.12600
C2488       C  0.00119377  0.08257072  0.92734596    -0.14200
C2489       C  0.59411010  0.00020822  0.91613392    -0.12600
C2490       C  0.56383629  0.49465364  0.90671183    -0.14200
C2491       C  0.91172057  0.40461033  0.82674262    -0.12600
C2492       C  0.93652929  0.42978084  0.83959954    -0.14200
C2493       C  0.99135241  0.08415440  0.83638063    -0.12600
C2494       C  0.49275250  0.05769045  0.84789432    -0.14200
C2495       C  0.56268642  0.99267479  0.84292643    -0.12600
C2496       C  0.59016671  0.99283839  0.83132223    -0.14200
C2497       C  0.49695374  0.49264764  0.34649936     0.46100
H2498       H  0.49760308  0.49465927  0.32163071    -0.02900
C2499       C  0.99557748  0.98761375  0.40609823     0.46100
H2500       H  0.99506483  0.98556607  0.43095110    -0.02900
C2501       C  0.53105468  0.49065022  0.35945785    -0.16600
C2502       C  0.49489088  0.52647102  0.36254279    -0.16400
C2503       C  0.96456153  0.95769359  0.35978682    -0.16800
C2504       C  0.53095387  0.98872873  0.38998290    -0.16700
C2505       C  0.99400283  0.52463728  0.39401366    -0.16300
C2506       C  0.96283379  0.95464651  0.39051375    -0.16600
Zr2507     Zr  0.88059238  0.66261476  0.03094326     2.17500
O2508       O  0.91139284  0.66440333  0.07772990    -0.50700
O2509       O  0.93014411  0.65972782  0.00179963    -0.73900
O2510       O  0.87290561  0.60014780  0.04398673    -0.80700
O2511       O  0.89878641  0.76385736  0.04325650    -0.82400
O2512       O  0.84755138  0.57376170  0.00070470    -0.78100
O2513       O  0.92256534  0.72290600  0.05128952    -0.89700
O2514       O  0.91313179  0.64681648  0.45379120    -0.75700
O2515       O  0.86038122  0.62947808  0.48524998    -0.85100
O2516       O  0.88976258  0.70756122  0.49246130    -0.84800
O2517       O  0.81693891  0.62169847  0.04013055    -0.71600
O2518       O  0.84451690  0.69452749  0.04488460    -0.83700
Zr2519     Zr  0.77000815  0.66490273  0.46474581     2.26400
Zr2520     Zr  0.79778789  0.58976705  0.49214610     2.06300
Zr2521     Zr  0.85386338  0.73762728  0.00495712     2.10000
Zr2522     Zr  0.87045558  0.67301398  0.44672240     1.78800
O2523       O  0.82542689  0.77481949  0.02688237    -0.92500
O2524       O  0.85956323  0.63093163  0.40420502    -0.40300
O2525       O  0.83378738  0.70340826  0.45987725    -0.77000
O2526       O  0.80629428  0.63236446  0.45131904    -0.95700
O2527       O  0.76198694  0.62148477  0.00494675    -0.89000
O2528       O  0.78959193  0.69920151  0.01179014    -0.91800
C2529       C  0.93407109  0.65014012  0.47574154     1.01900
C2530       C  0.92300179  0.75533768  0.05377660     1.14900
C2531       C  0.86024775  0.57205086  0.02627278     1.05700
O2532       O  0.79257067  0.53719920  0.46091759    -0.94000
O2533       O  0.74453043  0.56345141  0.46245567    -0.89700
O2534       O  0.72914511  0.60546273  0.44029453    -0.82900
C2535       C  0.72439989  0.57169705  0.44528697     1.12300
O2536       O  0.79907599  0.67676008  0.10142483    -0.95900
Zr2537     Zr  0.78057285  0.65421171  0.05069776     1.88900
O2538       O  0.71443183  0.65092924  0.49550384    -0.72600
O2539       O  0.76071282  0.54406648  0.03085128    -0.51800
O2540       O  0.75726403  0.60056166  0.08466161    -0.96500
O2541       O  0.75317153  0.69269647  0.07247199    -0.53700
O2542       O  0.71675295  0.62042078  0.03926749    -0.73100
C2543       C  0.70015112  0.63185090  0.02103846     0.99200
O2544       O  0.73647898  0.67096424  0.42198194    -0.61900
O2545       O  0.89583193  0.80184514  0.49510260    -0.56700
O2546       O  0.79293580  0.73182755  0.44546785    -0.93400
O2547       O  0.85225369  0.76371010  0.45731854    -0.91800
O2548       O  0.92930791  0.72537324  0.43552370    -0.92200
O2549       O  0.87234577  0.70468664  0.39971355    -0.91000
C2550       C  0.82427636  0.76160851  0.44377484     1.18100
H2551       H  0.91510687  0.72546097  0.49140453     0.34000
H2552       H  0.79803718  0.61895540  0.43275149     0.44900
H2553       H  0.77608264  0.71356058  0.01532208     0.38400
H2554       H  0.81426066  0.60450733  0.05622277     0.34900
H2555       H  0.88394513  0.63822200  0.39491940     0.26700
H2556       H  0.74740777  0.52044604  0.01976435     0.32600
H2557       H  0.73708754  0.58046881  0.07390907     0.38500
H2558       H  0.94328339  0.71422272  0.42435959     0.33000
H2559       H  0.89610981  0.81660753  0.51312949     0.31900
H2560       H  0.82903053  0.79414902  0.01159339     0.33500
H2561       H  0.73419079  0.67586043  0.08664672     0.32500
H2562       H  0.84735144  0.70239342  0.39764905     0.36500
H2563       H  0.72763923  0.68957306  0.42803377     0.29200
H2564       H  0.93175772  0.65843310  0.07189045     0.33500
H2565       H  0.77839830  0.66137286  0.11488613     0.36300
H2566       H  0.92001667  0.80169073  0.49441694     0.28900
H2567       H  0.75499451  0.68335478  0.40598527     0.41800
H2568       H  0.77404045  0.51455715  0.47095378     0.31900
H2569       H  0.85313613  0.60615564  0.41334888     0.39500
H2570       H  0.73907906  0.69706204  0.05640370     0.31300
H2571       H  0.77810222  0.53946129  0.04336194     0.31400
H2572       H  0.89442075  0.64248239  0.08951638     0.31700
C2573       C  0.86694397  0.86513691  0.42093043     0.03800
C2574       C  0.83596011  0.87137889  0.42739601    -0.12400
C2575       C  0.80176691  0.84088064  0.43368794     0.01300
C2576       C  0.79796522  0.80425391  0.43046564    -0.10900
C2577       C  0.82834129  0.79725183  0.42937106     0.03800
C2578       C  0.86307350  0.82792349  0.42344177    -0.10300
H2579       H  0.83892648  0.89971934  0.42930084     0.09300
H2580       H  0.77158388  0.78093561  0.43478369     0.06900
H2581       H  0.88718099  0.82310167  0.42217225     0.06700
Zr2582     Zr  0.72019797  0.88912422  0.47276868     2.17500
O2583       O  0.75704848  0.92562886  0.43038652    -0.50700
O2584       O  0.76988150  0.93448059  0.50342214    -0.73900
O2585       O  0.69935994  0.93511794  0.45233335    -0.80700
O2586       O  0.75441239  0.81736322  0.46920163    -0.82400
O2587       O  0.63997496  0.91725785  0.46496491    -0.78100
O2588       O  0.76551937  0.87308158  0.44792349    -0.89700
O2589       O  0.76156807  0.91752725  0.05417700    -0.75700
O2590       O  0.68744362  0.89926977  0.01576752    -0.85100
O2591       O  0.73116628  0.85983855  0.01751807    -0.84800
O2592       O  0.65726099  0.85869349  0.45808450    -0.71600
O2593       O  0.69644706  0.82292186  0.46230744    -0.83700
Zr2594     Zr  0.61094887  0.77499427  0.03398259     2.26400
Zr2595     Zr  0.62475273  0.86760919  0.00164619     2.06300
Zr2596     Zr  0.70578244  0.79421316  0.50629946     2.10000
Zr2597     Zr  0.69889451  0.87003553  0.05846767     1.78800
O2598       O  0.72433675  0.74792829  0.48650121    -0.92500
O2599       O  0.69709675  0.92576542  0.07977231    -0.40300
O2600       O  0.67366023  0.80368806  0.04997681    -0.77000
O2601       O  0.63590263  0.84053508  0.04559028    -0.95700
O2602       O  0.59985690  0.80332208  0.48959465    -0.89000
O2603       O  0.64388108  0.76497491  0.49231566    -0.91800
C2604       C  0.78017408  0.93838075  0.03237164     1.01900
C2605       C  0.77209427  0.84454639  0.45103649     1.14900
C2606       C  0.66924032  0.93864061  0.45117719     1.05700
O2607       O  0.62836203  0.92358997  0.02676670    -0.94000
O2608       O  0.57427876  0.84779338  0.03608197    -0.89700
O2609       O  0.55939159  0.78763851  0.04920559    -0.82900
C2610       C  0.55391650  0.81719140  0.04940925     1.12300
O2611       O  0.60742518  0.76191256  0.40229338    -0.95900
Zr2612     Zr  0.63343896  0.79281652  0.44934597     1.88900
O2613       O  0.56737410  0.72325561  0.00453063    -0.72600
O2614       O  0.57044792  0.86212996  0.47600194    -0.51800
O2615       O  0.59774030  0.81833326  0.42272996    -0.96500
O2616       O  0.67605888  0.78731461  0.41262068    -0.53700
O2617       O  0.58790133  0.72795659  0.45671123    -0.73100
C2618       C  0.56498646  0.71091708  0.47783147     0.99200
O2619       O  0.58918605  0.75525778  0.08521070    -0.61900
O2620       O  0.74889898  0.80485877  0.04940583    -0.56700
O2621       O  0.61424014  0.71731400  0.04635207    -0.93400
O2622       O  0.67169589  0.73244960  0.02966595    -0.91800
O2623       O  0.73042890  0.84901719  0.09423396    -0.92200
O2624       O  0.67320617  0.86268334  0.10900922    -0.91000
C2625       C  0.64053880  0.70898282  0.04043928     1.18100
H2626       H  0.75683720  0.86800041  0.02072553     0.34000
H2627       H  0.62336001  0.84419129  0.06289767     0.44900
H2628       H  0.63708202  0.73900722  0.48812496     0.38400
H2629       H  0.65419851  0.86969245  0.43979440     0.34900
H2630       H  0.71695356  0.93513617  0.09454625     0.26700
H2631       H  0.56822835  0.88536274  0.48086766     0.32600
H2632       H  0.57213383  0.80187056  0.42852253     0.38500
H2633       H  0.75392506  0.87102198  0.09781661     0.33000
H2634       H  0.74332894  0.77943683  0.05671790     0.31900
H2635       H  0.74734163  0.75298873  0.49671592     0.33500
H2636       H  0.68954616  0.77549680  0.42308720     0.32500
H2637       H  0.65397813  0.83658803  0.10976481     0.36500
H2638       H  0.60796505  0.74938781  0.09438372     0.29200
H2639       H  0.76608100  0.95216609  0.43636270     0.33500
H2640       H  0.60947235  0.73802085  0.40219776     0.36300
H2641       H  0.77304849  0.81364140  0.03933555     0.28900
H2642       H  0.59186452  0.77834551  0.09564086     0.41800
H2643       H  0.62860442  0.91833488  0.04842005     0.31900
H2644       H  0.70588096  0.94456068  0.06343846     0.39500
H2645       H  0.69436785  0.81300979  0.40754980     0.31300
H2646       H  0.57616423  0.86397683  0.45423503     0.31400
H2647       H  0.73977991  0.92207320  0.41399912     0.31700
C2648       C  0.60862408  0.60563308  0.06246680     0.03800
C2649       C  0.63815245  0.60075972  0.04915182    -0.12400
C2650       C  0.66428096  0.62935606  0.03093221     0.01300
C2651       C  0.66046029  0.66171289  0.02648416    -0.10900
C2652       C  0.63552640  0.66981017  0.04296365     0.03800
C2653       C  0.60827321  0.64104117  0.06012352    -0.10300
H2654       H  0.64071507  0.57515426  0.05288011     0.09300
H2655       H  0.67995682  0.68274198  0.01169793     0.06900
H2656       H  0.58737495  0.64616746  0.07171341     0.06700
C2657       C  0.62897496  0.50184111  0.42211147     0.03800
C2658       C  0.63329826  0.96890899  0.42759916    -0.12400
C2659       C  0.66730342  0.97025308  0.43492228     0.01300
C2660       C  0.69792615  0.00442223  0.43350621    -0.10900
C2661       C  0.69389285  0.53825550  0.43224442     0.03800
C2662       C  0.65962414  0.53686267  0.42546028    -0.10300
H2663       H  0.60914847  0.94232669  0.42792535     0.09300
H2664       H  0.72384107  0.00469657  0.43856315     0.06900
H2665       H  0.65642385  0.56243633  0.42430766     0.06700
C2666       C  0.98796587  0.85327234  0.07774357     0.03800
C2667       C  0.52104643  0.85028404  0.07365321    -0.12400
C2668       C  0.52132885  0.81649301  0.06442510     0.01300
C2669       C  0.98904140  0.78529507  0.06128950    -0.10900
C2670       C  0.95560976  0.78645973  0.06604558     0.01000
C2671       C  0.95514654  0.82053439  0.07486241    -0.10300
H2672       H  0.54638799  0.87566513  0.07451548     0.09300
H2673       H  0.98964086  0.75997971  0.05280106     0.06900
H2674       H  0.92942274  0.82197669  0.07800076     0.06700
C2675       C  0.00093574  0.61568354  0.44429988     0.03800
C2676       C  0.96766363  0.61643724  0.45192962    -0.12400
C2677       C  0.96722105  0.64567352  0.46950396     0.01300
C2678       C  0.99964101  0.67397311  0.47943930    -0.10900
C2679       C  0.53305779  0.67530094  0.47064538     0.03800
C2680       C  0.53409675  0.64634751  0.45241999    -0.10300
H2681       H  0.94219978  0.59423928  0.44447636     0.09300
H2682       H  0.99869713  0.69730472  0.99025424     0.06900
H2683       H  0.56006216  0.64797318  0.44475641     0.06700
C2684       C  0.87621753  0.99474722  0.06246152     0.03800
C2685       C  0.84253584  0.96394518  0.05633092    -0.12400
C2686       C  0.81635144  0.96896943  0.03907000     0.01300
C2687       C  0.82425484  0.00443314  0.02827635    -0.10900
C2688       C  0.85670313  0.53532050  0.03563356     0.03800
C2689       C  0.88216184  0.53057084  0.05362020    -0.10300
H2690       H  0.83702391  0.93632520  0.06443865     0.09300
H2691       H  0.80408119  0.00814161  0.01511982     0.06900
H2692       H  0.90686135  0.55465744  0.05997855     0.06700
Zr2693     Zr  0.76984467  0.59750113  0.21514089     2.17500
O2694       O  0.73707038  0.56437621  0.17085891    -0.50700
O2695       O  0.72470326  0.55558836  0.25157272    -0.73900
O2696       O  0.78779411  0.54650763  0.20015104    -0.80700
O2697       O  0.73593159  0.66866817  0.21080073    -0.82400
O2698       O  0.84736582  0.56450129  0.21116201    -0.78100
O2699       O  0.71733084  0.60755267  0.19931980    -0.89700
O2700       O  0.72752441  0.58694031  0.29495450    -0.75700
O2701       O  0.79828161  0.59058390  0.25931759    -0.85100
O2702       O  0.76321828  0.63720591  0.25288057    -0.84800
O2703       O  0.83273706  0.62121815  0.20054914    -0.71600
O2704       O  0.79822194  0.66121252  0.19622428    -0.83700
Zr2705     Zr  0.88527093  0.71203379  0.26602886     2.26400
Zr2706     Zr  0.86114015  0.61378706  0.24505792     2.06300
Zr2707     Zr  0.79356586  0.69975834  0.23575402     2.10000
Zr2708     Zr  0.79082222  0.62997738  0.29689577     1.78800
O2709       O  0.79536198  0.74543747  0.19885380    -0.92500
O2710       O  0.78659805  0.57650546  0.32602385    -0.40300
O2711       O  0.82224455  0.69301379  0.27993953    -0.77000
O2712       O  0.85365603  0.64982932  0.28532795    -0.95700
O2713       O  0.89234485  0.67597792  0.22613967    -0.89000
O2714       O  0.85575418  0.72124201  0.22299088    -0.91800
C2715       C  0.71237201  0.55887744  0.27774848     1.01900
C2716       C  0.71212580  0.63717745  0.20085718     1.14900
C2717       C  0.81766231  0.54219587  0.19944644     1.05700
O2718       O  0.84945044  0.55483372  0.26935736    -0.94000
O2719       O  0.90492439  0.62536266  0.28262544    -0.89700
O2720       O  0.92809303  0.68845616  0.28620375    -0.82900
C2721       C  0.92901482  0.65678699  0.29134575     1.12300
O2722       O  0.84727110  0.65357827  0.13468959    -0.95900
Zr2723     Zr  0.86145885  0.68395188  0.18355057     1.88900
O2724       O  0.93008855  0.75520090  0.23063994    -0.72600
O2725       O  0.91960710  0.62267439  0.22340629    -0.51800
O2726       O  0.91157731  0.67322087  0.16259913    -0.96500
O2727       O  0.84579116  0.72174774  0.14902634    -0.53700
O2728       O  0.91138678  0.74486479  0.18220462    -0.73100
C2729       C  0.93337716  0.76360580  0.20255285     0.99200
O2730       O  0.92187789  0.75022404  0.30697122    -0.61900
O2731       O  0.74903332  0.71128997  0.26561726    -0.56700
O2732       O  0.87753902  0.76551334  0.28546740    -0.93400
O2733       O  0.82492501  0.75753282  0.26356260    -0.91800
O2734       O  0.75892174  0.65957124  0.32502302    -0.92200
O2735       O  0.81351533  0.64629821  0.34762427    -0.91000
C2736       C  0.85248766  0.77579915  0.28035401     1.18100
H2737       H  0.73796395  0.63152468  0.25649679     0.34000
H2738       H  0.86385979  0.64721057  0.30401321     0.44900
H2739       H  0.86505051  0.74732037  0.21765802     0.38400
H2740       H  0.83558701  0.60808982  0.18322612     0.34900
H2741       H  0.76573163  0.57080211  0.34003155     0.26700
H2742       H  0.92235046  0.60014360  0.22943740     0.32600
H2743       H  0.92624154  0.69573856  0.15040246     0.38500
H2744       H  0.74340252  0.64048765  0.33979934     0.33000
H2745       H  0.72636867  0.68761260  0.26525355     0.31900
H2746       H  0.81531419  0.76944930  0.20524302     0.33500
H2747       H  0.86711406  0.73346009  0.13525137     0.32500
H2748       H  0.83491881  0.67091815  0.34541827     0.36500
H2749       H  0.91610324  0.73304196  0.32434739     0.29200
H2750       H  0.72479785  0.53770526  0.17683912     0.33500
H2751       H  0.86352240  0.67256051  0.12018642     0.36300
H2752       H  0.75745667  0.71313620  0.28650696     0.28900
H2753       H  0.94752100  0.75658008  0.30145249     0.41800
H2754       H  0.83278369  0.55267756  0.28639782     0.31900
H2755       H  0.77780036  0.55525334  0.31184124     0.39500
H2756       H  0.84630664  0.74277401  0.16127387     0.31300
H2757       H  0.91565012  0.61985070  0.20151646     0.31400
H2758       H  0.75622274  0.56606513  0.15618377     0.31700
C2759       C  0.88128855  0.87383080  0.31428072     0.03800
C2760       C  0.88414619  0.84107293  0.30482204    -0.12400
C2761       C  0.85294957  0.80986228  0.29482218     0.01300
C2762       C  0.81953073  0.81127143  0.29647884    -0.10900
C2763       C  0.81662087  0.84448518  0.30147838     0.03800
C2764       C  0.84769001  0.87593178  0.31131705    -0.10300
H2765       H  0.91022733  0.84008589  0.30505201     0.09300
H2766       H  0.79521980  0.78605867  0.29156249     0.06900
H2767       H  0.84588316  0.90168857  0.31651925     0.06700
Zr2768     Zr  0.60554607  0.76841351  0.23276128     2.17500
O2769       O  0.56126420  0.73192160  0.19516898    -0.50700
O2770       O  0.56116704  0.72581396  0.26825465    -0.73900
O2771       O  0.61485021  0.71534596  0.21260846    -0.80700
O2772       O  0.58329383  0.85499971  0.22284976    -0.82400
O2773       O  0.66681492  0.72187253  0.23486134    -0.78100
O2774       O  0.56553358  0.79396168  0.21086211    -0.89700
O2775       O  0.58588184  0.72939584  0.31407642    -0.75700
O2776       O  0.63707022  0.75805971  0.27365788    -0.85100
O2777       O  0.59894283  0.80206056  0.27496799    -0.84800
O2778       O  0.66803538  0.79052116  0.21584749    -0.71600
O2779       O  0.63284413  0.83227312  0.21736709    -0.83700
Zr2780     Zr  0.72144978  0.88152627  0.28459291     2.26400
Zr2781     Zr  0.69908426  0.78227426  0.25832478     2.06300
Zr2782     Zr  0.62758770  0.86629755  0.26007691     2.10000
Zr2783     Zr  0.63199561  0.79257798  0.31542457     1.78800
O2784       O  0.64270812  0.92869641  0.24073609    -0.92500
O2785       O  0.65004760  0.75565556  0.34897264    -0.40300
O2786       O  0.65923675  0.85626531  0.30072308    -0.77000
O2787       O  0.69474814  0.81703001  0.30069768    -0.95700
O2788       O  0.72670018  0.84573356  0.24303485    -0.89000
O2789       O  0.69009483  0.89191324  0.24339828    -0.91800
C2790       C  0.56057232  0.71423580  0.29518746     1.01900
C2791       C  0.56247171  0.82503251  0.20959850     1.14900
C2792       C  0.63932115  0.70416405  0.21795540     1.05700
O2793       O  0.70277599  0.74095558  0.29679195    -0.94000
O2794       O  0.75914817  0.81464683  0.27940928    -0.89700
O2795       O  0.77423649  0.87202801  0.29907167    -0.82900
C2796       C  0.78124051  0.84422331  0.29315832     1.12300
O2797       O  0.67434639  0.90076881  0.18540621    -0.95900
Zr2798     Zr  0.69512588  0.85536465  0.20236845     1.88900
O2799       O  0.76507913  0.92347256  0.24811707    -0.72600
O2800       O  0.74005332  0.76958605  0.22479858    -0.51800
O2801       O  0.68393900  0.81723551  0.15721612    -0.96500
O2802       O  0.72813773  0.88694983  0.15681794    -0.53700
O2803       O  0.75972952  0.88284970  0.21158431    -0.73100
C2804       C  0.77535395  0.91533269  0.22286167     0.99200
O2805       O  0.75432052  0.91416308  0.32898000    -0.61900
O2806       O  0.57316277  0.86718595  0.28288973    -0.56700
O2807       O  0.70264375  0.93058265  0.30019533    -0.93400
O2808       O  0.64287292  0.89711157  0.30722243    -0.91800
O2809       O  0.58041038  0.79676666  0.34045712    -0.92200
O2810       O  0.64795118  0.82278760  0.36415495    -0.91000
C2811       C  0.67092635  0.92811622  0.30773118     1.18100
H2812       H  0.57360764  0.79431252  0.28025250     0.34000
H2813       H  0.70860591  0.81447677  0.31710706     0.44900
H2814       H  0.69996320  0.91818768  0.23851888     0.38400
H2815       H  0.66997746  0.77572071  0.19936778     0.34900
H2816       H  0.64893829  0.73440673  0.33669574     0.26700
H2817       H  0.73111757  0.77028395  0.20441938     0.32600
H2818       H  0.70476221  0.81084230  0.15554861     0.38500
H2819       H  0.56859377  0.77357749  0.35254545     0.33000
H2820       H  0.56970920  0.88719520  0.27235953     0.31900
H2821       H  0.62382603  0.93538869  0.24926602     0.33500
H2822       H  0.74930922  0.88114201  0.15499084     0.32500
H2823       H  0.66916150  0.84710240  0.36010253     0.36500
H2824       H  0.76621788  0.94094930  0.32331649     0.29200
H2825       H  0.54962139  0.70587920  0.20278240     0.33500
H2826       H  0.65760064  0.88810399  0.16881208     0.36300
H2827       H  0.55247254  0.84369176  0.27655922     0.28900
H2828       H  0.73521510  0.91192219  0.34390759     0.41800
H2829       H  0.68299582  0.71601253  0.29221104     0.31900
H2830       H  0.67629791  0.77075646  0.35272489     0.39500
H2831       H  0.73891047  0.91399169  0.16144098     0.31300
H2832       H  0.76364662  0.79219115  0.22566339     0.31400
H2833       H  0.57560887  0.73135358  0.17719526     0.31700
C2834       C  0.62432062  0.49382122  0.31790387     0.03800
C2835       C  0.63146196  0.96074158  0.32171069    -0.12400
C2836       C  0.66491505  0.96192117  0.31096942     0.01300
C2837       C  0.68980552  0.49540609  0.29499661    -0.10900
C2838       C  0.68267331  0.52610364  0.29118258     0.03800
C2839       C  0.65048363  0.52603447  0.30329961    -0.10300
H2840       H  0.61084370  0.93523878  0.33156993     0.09300
H2841       H  0.71566188  0.99531169  0.28830903     0.06900
H2842       H  0.64578104  0.55066533  0.30114750     0.06700
C2843       C  0.99230880  0.62085683  0.32597642     0.03800
C2844       C  0.95978918  0.62295563  0.31854808    -0.12400
C2845       C  0.96092577  0.65601799  0.30569434     0.01300
C2846       C  0.99439301  0.68641895  0.30074152    -0.10900
C2847       C  0.52713567  0.68320264  0.30545414     0.03800
C2848       C  0.52661283  0.65097362  0.31852300    -0.10300
H2849       H  0.93391854  0.59855045  0.32162717     0.09300
H2850       H  0.99571511  0.71133204  0.28986178     0.06900
H2851       H  0.55199336  0.64940702  0.32261422     0.06700
C2852       C  0.99875082  0.86088182  0.17838476     0.03800
C2853       C  0.53044250  0.85953162  0.18528319    -0.12400
C2854       C  0.53073343  0.82579871  0.19507083     0.01300
C2855       C  0.99874451  0.79385670  0.19794412    -0.10900
C2856       C  0.96619040  0.79567430  0.19302774     0.03800
C2857       C  0.96581222  0.82861352  0.18241461    -0.10300
H2858       H  0.55570476  0.88493888  0.18376789     0.09300
H2859       H  0.99806709  0.76825489  0.20694282     0.06900
H2860       H  0.94006511  0.82957155  0.17874679     0.06700
C2861       C  0.61054866  0.60637998  0.18327882     0.03800
C2862       C  0.64459489  0.60477967  0.18473615    -0.12400
C2863       C  0.67600709  0.63647155  0.19382367     0.01300
C2864       C  0.67247954  0.66917197  0.20043894    -0.10900
C2865       C  0.63883936  0.67014942  0.20313743     0.03800
C2866       C  0.60762760  0.63885944  0.19341700    -0.10300
H2867       H  0.64649621  0.57924100  0.17886660     0.09300
H2868       H  0.69655762  0.69449276  0.20552451     0.06900
H2869       H  0.58137311  0.63947792  0.19409342     0.06700
C2870       C  0.85952450  0.97903758  0.17785629     0.03800
C2871       C  0.85206583  0.50947558  0.17640077    -0.12400
C2872       C  0.81894295  0.50807852  0.18818214     0.01300
C2873       C  0.79264246  0.97540233  0.19949411    -0.10900
C2874       C  0.80119417  0.94564804  0.20417984     0.03800
C2875       C  0.83397496  0.94662324  0.19259052    -0.10300
H2876       H  0.87294100  0.53571572  0.16781405     0.09300
H2877       H  0.76783943  0.97458818  0.20946294     0.06900
H2878       H  0.84017637  0.92314743  0.19620731     0.06700
C2879       C  0.99315440  0.98723102  0.09660115     0.46100
H2880       H  0.99371390  0.98690920  0.07167827    -0.02900
C2881       C  0.99132043  0.98751632  0.15528309     0.46100
H2882       H  0.99056793  0.98747124  0.18020221    -0.02900
C2883       C  0.95852305  0.98823623  0.11014675    -0.16600
C2884       C  0.99378850  0.95217117  0.11097844    -0.16400
C2885       C  0.52499945  0.52097632  0.11079000    -0.16800
C2886       C  0.95699302  0.98785673  0.14089700    -0.16700
C2887       C  0.99379816  0.95284593  0.14166492    -0.16300
C2888       C  0.52401561  0.52116440  0.14163266    -0.16600
C2889       C  0.92432905  0.98501541  0.15751361    -0.12600
C2890       C  0.89510021  0.98199742  0.16761120    -0.14200
C2891       C  0.55292500  0.54977492  0.15926028    -0.12600
C2892       C  0.57869856  0.57489112  0.17129599    -0.14200
C2893       C  0.99608214  0.92293934  0.15904482    -0.12600
C2894       C  0.99812058  0.89556296  0.16900054    -0.14200
C2895       C  0.92936027  0.98850342  0.09196084    -0.12600
C2896       C  0.90456540  0.99004289  0.07842882    -0.14200
C2897       C  0.99105966  0.91914168  0.09449999    -0.12600
C2898       C  0.98844274  0.88907879  0.08568686    -0.14200
C2899       C  0.57935561  0.57500378  0.07905484    -0.12600
C2900       C  0.55445339  0.54998513  0.09283313    -0.14200
C2901       C  0.90276325  0.89705482  0.41392282    -0.12600
C2902       C  0.93134031  0.92375347  0.40582834    -0.14200
C2903       C  0.99710451  0.55591699  0.41343757    -0.12600
C2904       C  0.00021780  0.58350014  0.42762956    -0.14200
C2905       C  0.59301571  0.49879106  0.41502271    -0.12600
C2906       C  0.56368849  0.99347195  0.40605698    -0.14200
C2907       C  0.91246778  0.90504699  0.32728528    -0.12600
C2908       C  0.93708743  0.93001594  0.34051076    -0.14200
C2909       C  0.99182420  0.58639180  0.33749774    -0.12600
C2910       C  0.49379332  0.55807464  0.34679015    -0.14200
C2911       C  0.56238383  0.49215927  0.34141860    -0.12600
C2912       C  0.59015864  0.49295457  0.32987852    -0.14200
C2913       C  0.49706735  0.49262639  0.84689836     0.46100
H2914       H  0.49771942  0.49486884  0.82204685    -0.02900
C2915       C  0.99570594  0.98741802  0.90535477     0.46100
H2916       H  0.99546050  0.98572044  0.93021985    -0.02900
C2917       C  0.53160157  0.49143828  0.85977030    -0.16600
C2918       C  0.49405216  0.52585224  0.86319195    -0.16400
C2919       C  0.96411006  0.95691400  0.85945627    -0.16800
C2920       C  0.53122458  0.99035880  0.89175323    -0.16700
C2921       C  0.99423676  0.52398890  0.89349000    -0.16300
C2922       C  0.96281887  0.95427952  0.89019736    -0.16600
Zr2923     Zr  0.87931972  0.66257602  0.53097395     2.17500
O2924       O  0.90751364  0.66424554  0.57905201    -0.50700
O2925       O  0.92952325  0.65997304  0.50242620    -0.73900
O2926       O  0.87263599  0.60035145  0.54364258    -0.80700
O2927       O  0.89741447  0.76359631  0.54358215    -0.82400
O2928       O  0.84758142  0.57387679  0.50026637    -0.78100
O2929       O  0.92161298  0.72286812  0.55095128    -0.89700
O2930       O  0.91235808  0.64469823  0.95367262    -0.75700
O2931       O  0.86044664  0.62884875  0.98562365    -0.85100
O2932       O  0.89104159  0.70692464  0.99185572    -0.84800
O2933       O  0.81565657  0.62100473  0.53952584    -0.71600
O2934       O  0.84235930  0.69356318  0.54484094    -0.83700
Zr2935     Zr  0.77065560  0.66512993  0.96584375     2.26400
Zr2936     Zr  0.79782070  0.58979036  0.99312790     2.06300
Zr2937     Zr  0.85179163  0.73737746  0.50558649     2.10000
Zr2938     Zr  0.87029565  0.67165969  0.94657564     1.78800
O2939       O  0.82224813  0.77279470  0.52876056    -0.92500
O2940       O  0.85944933  0.62863922  0.90472856    -0.40300
O2941       O  0.83443337  0.70294188  0.95969565    -0.77000
O2942       O  0.80612635  0.63188641  0.95204696    -0.95700
O2943       O  0.76122630  0.62082857  0.50350945    -0.89000
O2944       O  0.78742926  0.69822234  0.51121306    -0.91800
C2945       C  0.93400939  0.64901639  0.97527696     1.01900
C2946       C  0.92196001  0.75522393  0.55368031     1.14900
C2947       C  0.86020227  0.57225446  0.52590938     1.05700
O2948       O  0.79205036  0.53660329  0.96248369    -0.94000
O2949       O  0.74511136  0.56369414  0.96277323    -0.89700
O2950       O  0.73002036  0.60604468  0.94084991    -0.82900
C2951       C  0.72521286  0.57220491  0.94555145     1.12300
O2952       O  0.79851382  0.68203613  0.59831761    -0.95900
Zr2953     Zr  0.77848497  0.65279624  0.54968158     1.88900
O2954       O  0.71556797  0.65117103  0.99714748    -0.72600
O2955       O  0.76112672  0.54337045  0.52964613    -0.51800
O2956       O  0.75634409  0.59988187  0.58428988    -0.96500
O2957       O  0.74750997  0.68663422  0.57349233    -0.53700
O2958       O  0.71507358  0.61851841  0.53674793    -0.73100
C2959       C  0.69877953  0.63105238  0.51912167     0.99200
O2960       O  0.73422997  0.67030131  0.92497117    -0.61900
O2961       O  0.89979694  0.80107293  0.99359519    -0.56700
O2962       O  0.79349154  0.73210951  0.94668372    -0.93400
O2963       O  0.85348735  0.76269124  0.95633681    -0.91800
O2964       O  0.92871310  0.72371692  0.93379079    -0.92200
O2965       O  0.86955833  0.70119148  0.89906017    -0.91000
C2966       C  0.82506186  0.76149699  0.94421978     1.18100
H2967       H  0.91645897  0.72454635  0.99045121     0.34000
H2968       H  0.79763708  0.61839593  0.93355142     0.44900
H2969       H  0.77346610  0.71209054  0.51494602     0.38400
H2970       H  0.81297905  0.60372464  0.55554038     0.34900
H2971       H  0.88396084  0.63483725  0.89613362     0.26700
H2972       H  0.74833924  0.51970102  0.51850184     0.32600
H2973       H  0.73258877  0.59780382  0.59187589     0.38500
H2974       H  0.94121274  0.71267629  0.92065211     0.33000
H2975       H  0.90054012  0.81664610  0.01120780     0.31900
H2976       H  0.82354104  0.79094268  0.51312785     0.33500
H2977       H  0.72711560  0.66744295  0.58522962     0.32500
H2978       H  0.86898455  0.72507228  0.90455508     0.36500
H2979       H  0.72576354  0.68894108  0.93177561     0.29200
H2980       H  0.92878663  0.65939679  0.57410383     0.33500
H2981       H  0.78415737  0.66285599  0.61343675     0.36300
H2982       H  0.92351393  0.79987440  0.99335135     0.28900
H2983       H  0.75175885  0.68265026  0.90834070     0.41800
H2984       H  0.77285879  0.51427171  0.97235853     0.31900
H2985       H  0.85174548  0.60383689  0.91424613     0.39500
H2986       H  0.73546874  0.69361550  0.55725272     0.31300
H2987       H  0.77861123  0.53920142  0.54236839     0.31400
H2988       H  0.89038987  0.64165934  0.59007312     0.31700
C2989       C  0.86768852  0.86551572  0.92255592     0.03800
C2990       C  0.83715900  0.87208729  0.93019845    -0.12400
C2991       C  0.80302866  0.84177206  0.93696568     0.01300
C2992       C  0.79890035  0.80504269  0.93352208    -0.10900
C2993       C  0.82898204  0.79766896  0.93093857     0.03800
C2994       C  0.86359409  0.82816476  0.92436919    -0.10300
H2995       H  0.84038231  0.90050088  0.93229640     0.09300
H2996       H  0.77257349  0.78183355  0.93821864     0.06900
H2997       H  0.88747959  0.82307918  0.92197408     0.06700
Zr2998     Zr  0.71988565  0.88919480  0.97455311     2.17500
O2999       O  0.75627874  0.92513966  0.93179009    -0.50700
O3000       O  0.76897613  0.93514697  0.00512806    -0.73900
O3001       O  0.69855316  0.93498087  0.95425270    -0.80700
O3002       O  0.75585947  0.81855319  0.97252956    -0.82400
O3003       O  0.63892382  0.91671487  0.96633273    -0.78100
O3004       O  0.76617371  0.87368042  0.95055450    -0.89700
O3005       O  0.76200405  0.91744886  0.55260302    -0.75700
O3006       O  0.68860781  0.89977732  0.51426192    -0.85100
O3007       O  0.73122354  0.85931150  0.51548547    -0.84800
O3008       O  0.65719386  0.85856155  0.95917338    -0.71600
O3009       O  0.69719506  0.82299382  0.96455046    -0.83700
Zr3010     Zr  0.61091528  0.77569793  0.53313273     2.26400
Zr3011     Zr  0.62574841  0.86871598  0.50072650     2.06300
Zr3012     Zr  0.70649887  0.79475302  0.00880270     2.10000
Zr3013     Zr  0.69962928  0.86996164  0.55677425     1.78800
O3014       O  0.72965071  0.75117947  0.99096600    -0.92500
O3015       O  0.69778512  0.92572113  0.57801151    -0.40300
O3016       O  0.67393246  0.80372223  0.54800533    -0.77000
O3017       O  0.63636990  0.84123161  0.54464108    -0.95700
O3018       O  0.59981102  0.80233961  0.99028650    -0.89000
O3019       O  0.64499460  0.76497481  0.99356680    -0.91800
C3020       C  0.78083673  0.93794320  0.53077132     1.01900
C3021       C  0.77333679  0.84556807  0.95420753     1.14900
C3022       C  0.66839343  0.93846723  0.95294192     1.05700
O3023       O  0.63283982  0.92462720  0.52798934    -0.94000
O3024       O  0.57428859  0.84888612  0.53405770    -0.89700
O3025       O  0.56015940  0.78943008  0.54889134    -0.82900
C3026       C  0.55429727  0.81873884  0.54810964     1.12300
O3027       O  0.61618486  0.75778917  0.90395375    -0.95900
Zr3028     Zr  0.63464752  0.79287037  0.95051446     1.88900
O3029       O  0.56595309  0.72447772  0.50430320    -0.72600
O3030       O  0.56833497  0.85629916  0.97647881    -0.51800
O3031       O  0.59680988  0.81623266  0.92440055    -0.96500
O3032       O  0.67782936  0.79265029  0.91197483    -0.53700
O3033       O  0.58888078  0.72811697  0.95664740    -0.73100
C3034       C  0.56620574  0.71048657  0.97773181     0.99200
O3035       O  0.59320918  0.75549454  0.58491944    -0.61900
O3036       O  0.75009283  0.80363058  0.54517665    -0.56700
O3037       O  0.61348554  0.71747447  0.54483933    -0.93400
O3038       O  0.67101942  0.73246307  0.52834064    -0.91800
O3039       O  0.73358869  0.84949098  0.59054169    -0.92200
O3040       O  0.67537228  0.86287877  0.60783098    -0.91000
C3041       C  0.63980642  0.70908003  0.53912238     1.18100
H3042       H  0.75687901  0.86728130  0.51866250     0.34000
H3043       H  0.62394852  0.84524425  0.56188352     0.44900
H3044       H  0.63826144  0.73905804  0.98917380     0.38400
H3045       H  0.65404437  0.86947025  0.94085514     0.34900
H3046       H  0.71841351  0.93585516  0.59203240     0.26700
H3047       H  0.56226033  0.87653837  0.98359632     0.32600
H3048       H  0.57157353  0.79941041  0.93091351     0.38500
H3049       H  0.75315123  0.87280165  0.59847395     0.33000
H3050       H  0.74012579  0.77970765  0.55639866     0.31900
H3051       H  0.75267499  0.75815204  0.00178428     0.33500
H3052       H  0.69167703  0.78022891  0.92098913     0.32500
H3053       H  0.65358615  0.83839974  0.60798140     0.36500
H3054       H  0.61529707  0.75563543  0.59386870     0.29200
H3055       H  0.76410676  0.95176680  0.93695700     0.33500
H3056       H  0.59039959  0.75256200  0.90116299     0.36300
H3057       H  0.77174195  0.80440906  0.53430393     0.28900
H3058       H  0.59080085  0.77661740  0.59486602     0.41800
H3059       H  0.62869886  0.91689448  0.54932909     0.31900
H3060       H  0.70531398  0.94413644  0.56140289     0.39500
H3061       H  0.69575415  0.81902559  0.90882377     0.31300
H3062       H  0.57519911  0.86226587  0.95509002     0.31400
H3063       H  0.73889920  0.92001158  0.91522619     0.31700
C3064       C  0.60785242  0.60575531  0.56148479     0.03800
C3065       C  0.63716590  0.60068628  0.54794480    -0.12400
C3066       C  0.66320872  0.62910247  0.52953519     0.01300
C3067       C  0.65956448  0.66160533  0.52524167    -0.10900
C3068       C  0.63477033  0.66987924  0.54181024     0.03800
C3069       C  0.60759370  0.64122243  0.55913499    -0.10300
H3070       H  0.63956218  0.57497643  0.55157290     0.09300
H3071       H  0.67898729  0.68252110  0.51036989     0.06900
H3072       H  0.58679754  0.64645459  0.57079387     0.06700
C3073       C  0.62985216  0.50274795  0.92216704     0.03800
C3074       C  0.63285158  0.96969832  0.92982738    -0.12400
C3075       C  0.66670128  0.97039151  0.93683048     0.01300
C3076       C  0.69780280  0.00411339  0.93447430    -0.10900
C3077       C  0.69484117  0.53899358  0.93212129     0.03800
C3078       C  0.66055766  0.53771233  0.92556313    -0.10300
H3079       H  0.60830544  0.94350737  0.93091333     0.09300
H3080       H  0.72353122  0.00386042  0.93948912     0.06900
H3081       H  0.65738404  0.56331683  0.92466718     0.06700
C3082       C  0.98767139  0.85318181  0.57720600     0.03800
C3083       C  0.52101147  0.85190522  0.57163361    -0.12400
C3084       C  0.52162072  0.81812351  0.56284466     0.01300
C3085       C  0.98808972  0.78452249  0.56200081    -0.10900
C3086       C  0.95475565  0.78631199  0.56589190     0.01000
C3087       C  0.95466003  0.82074236  0.57409320    -0.10300
H3088       H  0.54619292  0.87748226  0.57221764     0.09300
H3089       H  0.98852766  0.75897822  0.55391781     0.06900
H3090       H  0.92910549  0.82268641  0.57659481     0.06700
C3091       C  0.00137094  0.61505326  0.94406657     0.03800
C3092       C  0.96795654  0.61540767  0.95186442    -0.12400
C3093       C  0.96733525  0.64505818  0.96874690     0.01300
C3094       C  0.99967875  0.67415054  0.97790702    -0.10900
C3095       C  0.53394784  0.67547665  0.97003400     0.03800
C3096       C  0.53465227  0.64581834  0.95255336    -0.10300
H3097       H  0.94254173  0.59271211  0.94490317     0.09300
H3098       H  0.99883542  0.69684950  0.49231749     0.06900
H3099       H  0.56051584  0.64643993  0.94580439     0.06700
C3100       C  0.87593923  0.99463742  0.56237849     0.03800
C3101       C  0.84278013  0.96362198  0.55539293    -0.12400
C3102       C  0.81683309  0.96857518  0.53777723     0.01300
C3103       C  0.82438798  0.00415612  0.52757916    -0.10900
C3104       C  0.85665484  0.53551927  0.53539684     0.03800
C3105       C  0.88207112  0.53073642  0.55344679    -0.10300
H3106       H  0.83751841  0.93590653  0.56308550     0.09300
H3107       H  0.80427765  0.00771729  0.51426726     0.06900
H3108       H  0.90680543  0.55480693  0.55976084     0.06700
Zr3109     Zr  0.76984605  0.59689280  0.71473437     2.17500
O3110       O  0.73767299  0.56258436  0.67062014    -0.50700
O3111       O  0.72431533  0.55483005  0.75094794    -0.73900
O3112       O  0.78783646  0.54580686  0.70039154    -0.80700
O3113       O  0.73473217  0.66668527  0.71275127    -0.82400
O3114       O  0.84849470  0.56582804  0.70755349    -0.78100
O3115       O  0.71730967  0.60667950  0.69847043    -0.89700
O3116       O  0.72885385  0.58507968  0.79521112    -0.75700
O3117       O  0.79975952  0.58971956  0.75782796    -0.85100
O3118       O  0.76333785  0.63553737  0.75354090    -0.84800
O3119       O  0.83248768  0.62185790  0.69890398    -0.71600
O3120       O  0.79725581  0.66099740  0.69657447    -0.83700
Zr3121     Zr  0.88544978  0.71168837  0.76588866     2.26400
Zr3122     Zr  0.86231065  0.61420975  0.74237484     2.06300
Zr3123     Zr  0.79277510  0.69843263  0.73706039     2.10000
Zr3124     Zr  0.79226215  0.62774093  0.79658973     1.78800
O3125       O  0.79390313  0.74393883  0.70029604    -0.92500
O3126       O  0.78806568  0.57219670  0.82262868    -0.40300
O3127       O  0.82241938  0.69137317  0.78063686    -0.77000
O3128       O  0.85503144  0.64872400  0.78398661    -0.95700
O3129       O  0.89231451  0.67703927  0.72481535    -0.89000
O3130       O  0.85502026  0.72133549  0.72361403    -0.91800
C3131       C  0.71271263  0.55775250  0.77751658     1.01900
C3132       C  0.71151809  0.63584708  0.70137740     1.14900
C3133       C  0.81798375  0.54220505  0.69803389     1.05700
O3134       O  0.85061052  0.55597918  0.76790516    -0.94000
O3135       O  0.90843256  0.62586988  0.77764306    -0.89700
O3136       O  0.92787353  0.68779920  0.78668540    -0.82900
C3137       C  0.93028118  0.65646445  0.78940421     1.12300
O3138       O  0.84720303  0.65632179  0.63360826    -0.95900
Zr3139     Zr  0.86041154  0.68528168  0.68304467     1.88900
O3140       O  0.93000625  0.75482394  0.73046036    -0.72600
O3141       O  0.91944190  0.62286575  0.71811265    -0.51800
O3142       O  0.91068532  0.67781974  0.65860208    -0.96500
O3143       O  0.84087994  0.72213543  0.65081993    -0.53700
O3144       O  0.91022872  0.74651623  0.68233566    -0.73100
C3145       C  0.93290607  0.76422982  0.70262951     0.99200
O3146       O  0.92543531  0.75212812  0.80432151    -0.61900
O3147       O  0.74792838  0.70969763  0.76661894    -0.56700
O3148       O  0.87644115  0.76419927  0.78650812    -0.93400
O3149       O  0.82331007  0.75586510  0.76537985    -0.91800
O3150       O  0.76252853  0.65669838  0.82816924    -0.92200
O3151       O  0.81485452  0.64142141  0.84753951    -0.91000
C3152       C  0.85105146  0.77423146  0.78193574     1.18100
H3153       H  0.73809500  0.62966496  0.75747705     0.34000
H3154       H  0.86543878  0.64525009  0.80227621     0.44900
H3155       H  0.86402255  0.74751691  0.71873954     0.38400
H3156       H  0.83485512  0.60888813  0.68128771     0.34900
H3157       H  0.76980521  0.56771095  0.83891550     0.26700
H3158       H  0.92020007  0.59846203  0.72017884     0.32600
H3159       H  0.93217624  0.69208892  0.67111083     0.38500
H3160       H  0.73897281  0.65064378  0.81849114     0.33000
H3161       H  0.72567276  0.68561365  0.76690925     0.31900
H3162       H  0.81332516  0.76814840  0.70695500     0.33500
H3163       H  0.86017496  0.73266399  0.63512266     0.32500
H3164       H  0.83515194  0.66690360  0.84625068     0.36500
H3165       H  0.92150925  0.73599598  0.82215138     0.29200
H3166       H  0.72518206  0.53606670  0.67701018     0.33500
H3167       H  0.86184293  0.67636065  0.61919950     0.36300
H3168       H  0.75679954  0.71258236  0.78742919     0.28900
H3169       H  0.95058847  0.75844319  0.79722810     0.41800
H3170       H  0.84726338  0.56070134  0.78930900     0.31900
H3171       H  0.77581136  0.55122127  0.80854522     0.39500
H3172       H  0.84395206  0.74407145  0.66308315     0.31300
H3173       H  0.91571064  0.62493788  0.69644745     0.31400
H3174       H  0.75692518  0.56380607  0.65623740     0.31700
C3175       C  0.87989931  0.87250613  0.81549212     0.03800
C3176       C  0.88276112  0.83976042  0.80600544    -0.12400
C3177       C  0.85145579  0.80826143  0.79657290     0.01300
C3178       C  0.81796354  0.80956139  0.79864271    -0.10900
C3179       C  0.81501205  0.84280093  0.80367715     0.03800
C3180       C  0.84615409  0.87438296  0.81312736    -0.10300
H3181       H  0.90895416  0.83900597  0.80576967     0.09300
H3182       H  0.79361759  0.78429769  0.79391646     0.06900
H3183       H  0.84436477  0.90017461  0.81824225     0.06700
Zr3184     Zr  0.60571896  0.76788603  0.73304999     2.17500
O3185       O  0.56064243  0.73266576  0.69564447    -0.50700
O3186       O  0.56178341  0.72416334  0.76844644    -0.73900
O3187       O  0.61470840  0.71481405  0.71244453    -0.80700
O3188       O  0.58602931  0.85506579  0.72008566    -0.82400
O3189       O  0.66713070  0.72183242  0.73411902    -0.78100
O3190       O  0.56550522  0.79291382  0.71125449    -0.89700
O3191       O  0.58380280  0.72994969  0.81561916    -0.75700
O3192       O  0.63694037  0.75776928  0.77413742    -0.85100
O3193       O  0.59851106  0.80146273  0.77506132    -0.84800
O3194       O  0.66823059  0.79039171  0.71597513    -0.71600
O3195       O  0.63334994  0.83189522  0.71773648    -0.83700
Zr3196     Zr  0.72085369  0.88108602  0.78530540     2.26400
Zr3197     Zr  0.69886868  0.78192990  0.75847172     2.06300
Zr3198     Zr  0.62710069  0.86571903  0.76007408     2.10000
Zr3199     Zr  0.63139860  0.79237178  0.81576142     1.78800
O3200       O  0.64169728  0.92883277  0.74273517    -0.92500
O3201       O  0.64847741  0.75423107  0.84872949    -0.40300
O3202       O  0.65856206  0.85601548  0.80108467    -0.77000
O3203       O  0.69408686  0.81641197  0.80103580    -0.95700
O3204       O  0.72670453  0.84561124  0.74374631    -0.89000
O3205       O  0.68983356  0.89160143  0.74387567    -0.91800
C3206       C  0.55989830  0.71354181  0.79586778     1.01900
C3207       C  0.56378374  0.82448884  0.70839363     1.14900
C3208       C  0.63942751  0.70385637  0.71745107     1.05700
O3209       O  0.70270244  0.73852561  0.79484475    -0.94000
O3210       O  0.75816130  0.81346236  0.78075575    -0.89700
O3211       O  0.77261265  0.87039192  0.80115304    -0.82900
C3212       C  0.77979574  0.84270348  0.79509172     1.12300
O3213       O  0.67793132  0.90290175  0.68524162    -0.95900
Zr3214     Zr  0.69569739  0.85548801  0.70284821     1.88900
O3215       O  0.76553154  0.92286624  0.74937071    -0.72600
O3216       O  0.74161785  0.77362407  0.72392309    -0.51800
O3217       O  0.68120818  0.81709469  0.65764458    -0.96500
O3218       O  0.72988255  0.88468236  0.65706189    -0.53700
O3219       O  0.76046114  0.88300596  0.71219475    -0.73100
C3220       C  0.77625138  0.91514600  0.72413771     0.99200
O3221       O  0.75452969  0.91469588  0.82906575    -0.61900
O3222       O  0.57038508  0.86343861  0.78077048    -0.56700
O3223       O  0.70140933  0.93003998  0.80052920    -0.93400
O3224       O  0.64139308  0.89708954  0.80705020    -0.91800
O3225       O  0.58163947  0.79957294  0.84135259    -0.92200
O3226       O  0.64810784  0.82324238  0.86415629    -0.91000
C3227       C  0.66967951  0.92790792  0.80773747     1.18100
H3228       H  0.57310803  0.79346551  0.78023093     0.34000
H3229       H  0.70764487  0.81359746  0.81754517     0.44900
H3230       H  0.69965934  0.91792068  0.73915894     0.38400
H3231       H  0.67025885  0.77565344  0.69948190     0.34900
H3232       H  0.64911596  0.73432011  0.83569576     0.26700
H3233       H  0.72922768  0.76774181  0.70436974     0.32600
H3234       H  0.70136354  0.80982796  0.65492600     0.38500
H3235       H  0.56653492  0.77493940  0.85070288     0.33000
H3236       H  0.56771698  0.88452899  0.77132919     0.31900
H3237       H  0.62191816  0.93442830  0.75083565     0.33500
H3238       H  0.74997928  0.87716727  0.65560213     0.32500
H3239       H  0.67369284  0.84215599  0.86130754     0.36500
H3240       H  0.76677733  0.94126306  0.82279057     0.29200
H3241       H  0.54914751  0.70644031  0.70283608     0.33500
H3242       H  0.65885717  0.88978458  0.67030485     0.36300
H3243       H  0.55057330  0.84078321  0.77221634     0.28900
H3244       H  0.73570409  0.91334808  0.84394920     0.41800
H3245       H  0.67970386  0.71543196  0.79278980     0.31900
H3246       H  0.67423875  0.76983209  0.85385114     0.39500
H3247       H  0.74211147  0.91181899  0.66132939     0.31300
H3248       H  0.76167931  0.79903638  0.72111643     0.31400
H3249       H  0.57478021  0.73253923  0.67740843     0.31700
C3250       C  0.62450561  0.49407151  0.81804499     0.03800
C3251       C  0.63102229  0.96143293  0.82207941    -0.12400
C3252       C  0.66395678  0.96197773  0.81061636     0.01300
C3253       C  0.68942956  0.49441363  0.79508580    -0.10900
C3254       C  0.68262942  0.52523446  0.79082367     0.03800
C3255       C  0.65074096  0.52580985  0.80297037    -0.10300
H3256       H  0.61071456  0.93633694  0.83270350     0.09300
H3257       H  0.71383329  0.99426075  0.78641622     0.06900
H3258       H  0.64638086  0.55061607  0.80056536     0.06700
C3259       C  0.99212095  0.61944437  0.82498323     0.03800
C3260       C  0.95986631  0.62141839  0.81649488    -0.12400
C3261       C  0.96120553  0.65522911  0.80504141     0.01300
C3262       C  0.99446642  0.68644145  0.80268554    -0.10900
C3263       C  0.52624769  0.68227960  0.80557076     0.03800
C3264       C  0.52532819  0.65001440  0.81896811    -0.10300
H3265       H  0.93410493  0.59656191  0.81790742     0.09300
H3266       H  0.99594241  0.71199300  0.79287934     0.06900
H3267       H  0.55057593  0.64855735  0.82386091     0.06700
C3268       C  0.99898667  0.86135980  0.67832311     0.03800
C3269       C  0.53208771  0.85897827  0.68366191    -0.12400
C3270       C  0.53197440  0.82531568  0.69408215     0.01300
C3271       C  0.99852312  0.79453368  0.69889320    -0.10900
C3272       C  0.96601968  0.79630434  0.69338622     0.03800
C3273       C  0.96592888  0.82920750  0.68235746    -0.10300
H3274       H  0.55757740  0.88401982  0.68137336     0.09300
H3275       H  0.99770734  0.76902388  0.70821787     0.06900
H3276       H  0.94028889  0.83019821  0.67822229     0.06700
C3277       C  0.61032995  0.60590722  0.68273044     0.03800
C3278       C  0.64420488  0.60398305  0.68450650    -0.12400
C3279       C  0.67562420  0.63546632  0.69388711     0.01300
C3280       C  0.67234622  0.66838627  0.70021141    -0.10900
C3281       C  0.63882357  0.66968511  0.70268131     0.03800
C3282       C  0.60755654  0.63848725  0.69285195    -0.10300
H3283       H  0.64595094  0.57833831  0.67873000     0.09300
H3284       H  0.69653062  0.69360122  0.70531046     0.06900
H3285       H  0.58138924  0.63930432  0.69333328     0.06700
C3286       C  0.86060056  0.97902009  0.67893181     0.03800
C3287       C  0.85150045  0.50835544  0.67543685    -0.12400
C3288       C  0.81884641  0.50748961  0.68773377     0.01300
C3289       C  0.79437472  0.97589877  0.70181147    -0.10900
C3290       C  0.80269966  0.94590889  0.70608682     0.03800
C3291       C  0.83523825  0.94670231  0.69398533    -0.10300
H3292       H  0.87217801  0.53426216  0.66614932     0.09300
H3293       H  0.76977750  0.97527116  0.71204513     0.06900
H3294       H  0.84128335  0.92306241  0.69723065     0.06700
C3295       C  0.99334025  0.98753815  0.59563210     0.46100
H3296       H  0.99370716  0.98728056  0.57070600    -0.02900
C3297       C  0.99196188  0.98768103  0.65431852     0.46100
H3298       H  0.99142645  0.98757937  0.67923698    -0.02900
C3299       C  0.95875464  0.98842906  0.60948151    -0.16600
C3300       C  0.99416549  0.95247951  0.60982516    -0.16400
C3301       C  0.52482003  0.52051354  0.60993872    -0.16800
C3302       C  0.95747484  0.98796687  0.64024342    -0.16700
C3303       C  0.99438399  0.95307789  0.64051896    -0.16300
C3304       C  0.52389477  0.52087718  0.64078318    -0.16600
C3305       C  0.92492362  0.98494218  0.65721286    -0.12600
C3306       C  0.89589346  0.98183410  0.66790530    -0.14200
C3307       C  0.55279113  0.54959802  0.65831770    -0.12600
C3308       C  0.57851238  0.57463353  0.67046857    -0.14200
C3309       C  0.99666893  0.92313937  0.65785031    -0.12600
C3310       C  0.99858614  0.89589281  0.66822258    -0.14200
C3311       C  0.92934170  0.98855544  0.59156847    -0.12600
C3312       C  0.90436701  0.99000021  0.57825763    -0.14200
C3313       C  0.99134240  0.91950182  0.59322787    -0.12600
C3314       C  0.98853329  0.88931158  0.58457107    -0.14200
C3315       C  0.57862911  0.57509748  0.57812460    -0.12600
C3316       C  0.55394797  0.54979732  0.59188394    -0.14200
C3317       C  0.90329162  0.89718848  0.91470981    -0.12600
C3318       C  0.93163643  0.92366500  0.90598290    -0.14200
C3319       C  0.99765402  0.55540433  0.91297141    -0.12600
C3320       C  0.00085473  0.58291159  0.92737468    -0.14200
C3321       C  0.59386136  0.49977876  0.91522059    -0.12600
C3322       C  0.56404725  0.99534255  0.90788404    -0.14200
C3323       C  0.91131503  0.90401122  0.82781650    -0.12600
C3324       C  0.93625428  0.92913014  0.84057939    -0.14200
C3325       C  0.99151556  0.58491046  0.83634096    -0.12600
C3326       C  0.49225681  0.55728803  0.84759881    -0.14200
C3327       C  0.56299088  0.49329575  0.84164895    -0.12600
C3328       C  0.59064950  0.49387907  0.83006185    -0.14200
loop_ 
_geom_bond_atom_site_label_1 
_geom_bond_atom_site_label_2 
_geom_bond_distance 
_geom_bond_site_symmetry_2 
_ccdc_geom_bond_type 
C1            H2   1.111       .  S
C1            C6   1.555   1_565  S
C1            C5   1.552   1_655  S
C1         C2503   1.547       .  S
C3            H4   1.111       .  S
C3           C10   1.572       .  S
C3          C841   1.553       .  S
C3         C1672   1.559       .  S
C5          C415   1.477       .  S
C5          C840   1.370       .  D
C6          C414   1.463       .  S
C6         C1673   1.373       .  D
C7         C2497   1.548       .  S
C7          C412   1.465       .  S
C7           C10   1.373       .  D
C8         C1667   1.558   1_455  S
C8          C410   1.468       .  S
C8          C837   1.370       .  D
C9          C835   1.552   1_545  S
C9          C407   1.474       .  S
C9         C1670   1.373       .  D
C10         C406   1.491       .  S
Zr11         O12   2.438       .  S
Zr11         O13   2.429       .  S
Zr11         O14   2.440       .  S
Zr11         O17   2.438       .  S
Zr11         O21   2.416       .  S
Zr11         O22   2.405       .  S
Zr11        O435   2.372   1_554  S
Zr11        O436   2.383   1_554  S
O12          H68   0.991       .  S
O12          H76   0.990       .  S
O13         C449   1.285   1_554  A
O14          C35   1.281       .  A
O15         Zr25   2.411       .  S
O15          C34   1.276       .  A
O16        Zr440   2.409   1_554  S
O16          C35   1.275       .  A
O17          C34   1.287       .  A
O18         Zr26   2.424       .  S
O18          C33   1.280       .  A
O19         Zr24   2.357       .  S
O19         Zr26   2.348       .  S
O19        Zr427   2.373       .  S
O20         Zr26   2.397       .  S
O20        Zr427   2.382       .  S
O20        Zr441   2.396       .  S
O20          H55   0.966       .  S
O21         Zr41   2.400       .  S
O21        Zr440   2.402   1_554  S
O21          H58   0.965       .  S
O22         Zr25   2.383       .  S
O22         Zr41   2.402       .  S
Zr23         O48   2.440       .  S
Zr23         O42   2.467       .  S
Zr23         O50   2.557       .  S
Zr23         O38   2.489       .  S
Zr23         O29   2.379       .  S
Zr23         O30   2.422       .  S
Zr23        O447   2.381       .  S
Zr23        O448   2.398       .  S
Zr24         O36   2.438       .  S
Zr24        O459   2.439       .  S
Zr24         O37   2.372       .  S
Zr24        O432   2.410       .  S
Zr24         O30   2.405       .  S
Zr24        O437   2.398       .  S
Zr24        O447   2.369       .  S
Zr25         O27   2.438       .  S
Zr25        O465   2.446   1_554  S
Zr25        O467   2.401   1_554  S
Zr25         O32   2.405       .  S
Zr25        O436   2.396   1_554  S
Zr25        O445   2.382   1_554  S
Zr26         O52   2.439       .  S
Zr26         O53   2.434       .  S
Zr26         O28   2.436       .  S
Zr26         O29   2.368       .  S
Zr26         O30   2.407       .  S
O27          H64   0.990       .  S
O28          H59   0.990       .  S
O28          H73   0.990       .  S
O29        Zr441   2.380       .  S
O30          H56   0.965       .  S
O31         Zr41   2.365       .  S
O31        Zr439   2.376   1_554  S
O31        Zr440   2.363   1_554  S
O32         Zr41   2.404       .  S
O32        Zr439   2.398   1_554  S
O32          H57   0.964       .  S
C33         O429   1.286       .  A
C33         C181   1.464       .  S
C34         C174   1.477       .  S
C35         C192   1.468       .  S
O36          H72   0.989       .  S
O37          C39   1.275       .  A
O38          C39   1.293       .  A
C39         C165   1.495       .  S
O40         Zr41   2.434       .  S
O40          H69   0.990       .  S
Zr41         O44   2.439       .  S
Zr41         O45   2.447       .  S
Zr41         O46   2.413       .  S
O42         C463   1.296       .  A
O43        Zr440   2.443   1_554  S
O43          H60   0.990       .  S
O43          H75   0.989       .  S
O44          H61   0.991       .  S
O45          H65   0.990       .  S
O45          H74   0.989       .  S
O46          C47   1.273       .  A
C47         O458   1.296   1_554  A
C47         C154   1.482       .  S
O48          H67   0.991       .  S
O48          H71   0.990       .  S
O49        Zr441   2.443       .  S
O49          H63   0.990       .  S
O49          H70   0.991       .  S
O50          C54   1.311       .  A
O51        Zr441   2.394       .  S
O51          C54   1.273       .  A
O52          H62   0.990       .  S
O53          H66   0.990       .  S
C54          C81   1.501       .  S
C77          C78   1.416       .  A
C77          C82   1.424       .  A
C77         C405   1.486       .  S
C78          C79   1.415       .  A
C78          H83   1.083       .  S
C79         C109   1.485       .  S
C79          C80   1.404       .  A
C80          C81   1.386       .  A
C80          H84   1.085       .  S
C81          C82   1.430       .  A
C82          H85   1.083       .  S
Zr86         O87   2.440       .  S
Zr86         O88   2.469       .  S
Zr86         O89   2.516       .  S
Zr86         O92   2.451       .  S
Zr86         O96   2.411       .  S
Zr86         O97   2.416       .  S
Zr86        O510   2.377       .  S
Zr86        O511   2.403       .  S
O87         H143   0.990       .  S
O87         H151   0.991       .  S
O88         C524   1.293       .  A
O89         C110   1.301       .  A
O90        Zr100   2.415       .  S
O90         C109   1.285       .  A
O91        Zr515   2.373       .  S
O91         C110   1.272       .  A
O92         C109   1.285       .  A
O93        Zr101   2.420       .  S
O93         C108   1.280       .  A
O94         Zr99   2.398   1_554  S
O94        Zr101   2.392       .  S
O94        Zr502   2.375   1_554  S
O95        Zr101   2.370       .  S
O95        Zr502   2.404   1_554  S
O95        Zr516   2.363       .  S
O95         H130   0.965       .  S
O96        Zr116   2.396       .  S
O96        Zr515   2.404       .  S
O96         H133   0.964       .  S
O97        Zr100   2.389       .  S
O97        Zr116   2.386       .  S
Zr98        O123   2.441       .  S
Zr98        O117   2.439       .  S
Zr98        O125   2.416       .  S
Zr98        O113   2.461       .  S
Zr98        O104   2.418       .  S
Zr98        O105   2.398       .  S
Zr98        O522   2.381   1_554  S
Zr98        O523   2.393   1_554  S
Zr99        O111   2.435   1_556  S
Zr99        O534   2.439       .  S
Zr99        O112   2.386   1_556  S
Zr99        O507   2.375       .  S
Zr99        O105   2.386   1_556  S
Zr99        O512   2.406       .  S
Zr99        O522   2.389       .  S
Zr100       O102   2.435       .  S
Zr100       O540   2.436       .  S
Zr100       O542   2.433       .  S
Zr100       O107   2.369       .  S
Zr100       O511   2.364       .  S
Zr100       O520   2.375       .  S
Zr101       O127   2.435       .  S
Zr101       O128   2.434       .  S
Zr101       O103   2.439       .  S
Zr101       O104   2.404       .  S
Zr101       O105   2.389       .  S
O102        H139   0.989       .  S
O103        H134   0.990       .  S
O103        H148   0.990       .  S
O104       Zr516   2.372       .  S
O105        H131   0.964       .  S
O106       Zr116   2.386       .  S
O106       Zr514   2.382       .  S
O106       Zr515   2.394       .  S
O107       Zr116   2.355       .  S
O107       Zr514   2.392       .  S
O107        H132   0.963       .  S
C108        O504   1.293       .  A
C108        C190   1.478       .  S
C110        C163   1.490       .  S
O111        H147   0.990       .  S
O112        C114   1.276       .  A
O113        C114   1.292       .  A
C114        C172   1.469       .  S
O115       Zr116   2.435       .  S
O115        H144   0.990       .  S
Zr116       O119   2.438       .  S
Zr116       O120   2.446       .  S
Zr116       O121   2.443       .  S
O117        C538   1.289   1_554  A
O118       Zr515   2.440       .  S
O118        H135   0.990       .  S
O118        H150   0.990       .  S
O119        H136   0.990       .  S
O120        H140   0.991       .  S
O120        H149   0.991       .  S
O121        C122   1.280       .  A
C122        O533   1.288       .  A
C122        C183   1.479       .  S
O123        H142   0.991       .  S
O123        H146   0.990       .  S
O124       Zr516   2.436       .  S
O124        H138   0.990       .  S
O124        H145   0.990       .  S
O125        C129   1.277       .  A
O126       Zr516   2.440       .  S
O126        C129   1.291       .  A
O127        H137   0.990       .  S
O128        H141   0.990       .  S
C129        C156   1.483       .  S
C152        C153   1.422       .  A
C152        C157   1.420       .  A
C152        C403   1.470       .  S
C153        C154   1.416       .  A
C153        H158   1.083       .  S
C154        C155   1.380       .  A
C155        C156   1.391       .  A
C155        H159   1.082       .  S
C156        C157   1.413       .  A
C157        H160   1.083       .  S
C161        C166   1.417       .  A
C161        C994   1.405   1_545  A
C161        C409   1.460   1_545  S
C162        C163   1.412       .  A
C162        C993   1.406       .  A
C162        H167   1.084       .  S
C163        C164   1.387       .  A
C164        C997   1.414       .  A
C164        H168   1.082       .  S
C165        C166   1.415       .  A
C165        C996   1.417       .  A
C166        H169   1.083       .  S
C170        C175   1.408       .  A
C170       C1835   1.399       .  A
C170        C402   1.459       .  S
C171        C172   1.410       .  A
C171       C1834   1.399   1_455  A
C171        H176   1.085       .  S
C172       C1837   1.391   1_455  A
C173        C174   1.399       .  A
C173       C1836   1.393       .  A
C173        H177   1.085       .  S
C174        C175   1.418       .  A
C175        H178   1.084       .  S
C179        C180   1.410       .  A
C179       C1848   1.422       .  A
C179        C408   1.468       .  S
C180        C181   1.407       .  A
C180        H185   1.084       .  S
C181        C182   1.387       .  A
C182       C1847   1.389       .  A
C182        H602   1.086       .  S
C183        C184   1.421       .  A
C183       C1846   1.388       .  A
C184       C1843   1.422       .  A
C184        H187   1.083       .  S
H186        C598   1.086       .  S
C188        C189   1.415       .  A
C188       C1025   1.407       .  A
C188        C400   1.454       .  S
C189        C190   1.414       .  A
C189        H194   1.084       .  S
C190        C191   1.387       .  A
C191       C1024   1.397       .  A
C191        H195   1.082       .  S
C192        C193   1.402       .  A
C192       C1023   1.399       .  A
C193       C1020   1.407   1_545  A
C193        H196   1.084       .  S
Zr197       O198   2.439       .  S
Zr197       O199   2.461       .  S
Zr197       O200   2.524       .  S
Zr197       O203   2.465       .  S
Zr197       O205   2.382       .  S
Zr197       O206   2.393       .  S
Zr197       O207   2.397       .  S
Zr197       O208   2.428       .  S
O198        H254   0.991       .  S
O198        H262   0.990       .  S
O199        C219   1.292       .  A
O200        C221   1.303       .  A
O201       Zr211   2.416       .  S
O201        C220   1.285       .  A
O202       Zr210   2.339       .  S
O202        C221   1.266       .  A
O203        C220   1.288       .  A
O204       Zr212   2.389       .  S
O204        C219   1.271       .  A
O205       Zr210   2.391       .  S
O205       Zr212   2.396       .  S
O206       Zr211   2.363       .  S
O206       Zr212   2.369       .  S
O206        H241   0.965       .  S
O207       Zr210   2.396       .  S
O207       Zr227   2.369       .  S
O207        H244   0.963       .  S
O208       Zr211   2.388       .  S
O208       Zr227   2.391       .  S
Zr209       O234   2.439       .  S
Zr209       O228   2.438       .  S
Zr209       O236   2.447       .  S
Zr209       O224   2.511       .  S
Zr209       O215   2.413       .  S
Zr209       O216   2.392       .  S
Zr209       O217   2.371       .  S
Zr209       O218   2.402       .  S
Zr210       O229   2.438       .  S
Zr210       O222   2.435       .  S
Zr210       O223   2.359       .  S
Zr210       O216   2.391       .  S
Zr210       O217   2.380       .  S
Zr211       O213   2.435       .  S
Zr211       O235   2.436       .  S
Zr211       O237   2.422       .  S
Zr211       O215   2.389       .  S
Zr211       O218   2.363       .  S
Zr212       O238   2.436       .  S
Zr212       O239   2.434       .  S
Zr212       O214   2.439       .  S
Zr212       O215   2.380       .  S
Zr212       O216   2.376       .  S
O213        H250   0.990       .  S
O214        H245   0.990       .  S
O214        H259   0.990       .  S
O216        H242   0.964       .  S
O217       Zr227   2.396       .  S
O218       Zr227   2.369       .  S
O218        H243   0.965       .  S
C219        C342   1.455       .  S
C220        C367   1.503       .  S
C221        C376   1.467       .  S
O222        H258   0.990       .  S
O223        C225   1.269       .  A
O224        C225   1.301       .  A
C225        C349   1.475       .  S
O226       Zr227   2.437       .  S
O226        H255   0.990       .  S
Zr227       O230   2.438       .  S
Zr227       O231   2.438       .  S
Zr227       O232   2.391       .  S
O228        C233   1.286       .  A
O229        H246   0.990       .  S
O229        H261   0.990       .  S
O230        H247   0.990       .  S
O231        H251   0.990       .  S
O231        H260   0.989       .  S
O232        C233   1.274       .  A
C233        C360   1.448       .  S
O234        H253   0.990       .  S
O234        H257   0.990       .  S
O235        H249   0.990       .  S
O235        H256   0.990       .  S
O236        C240   1.284       .  A
O237        C240   1.288       .  A
O238        H248   0.990       .  S
O239        H252   0.990       .  S
C240        C265   1.490       .  S
C263        C264   1.419       .  A
C263        C268   1.418       .  A
C263        C411   1.458       .  S
C264        C265   1.409       .  A
C264        H269   1.083       .  S
C265        C266   1.393       .  A
C266        C267   1.395       .  A
C266        H270   1.083       .  S
C267        C300   1.492       .  S
C267        C268   1.410       .  A
C268        H271   1.083       .  S
Zr272       O273   2.441       .  S
Zr272       O274   2.431       .  S
Zr272       O275   2.471       .  S
Zr272       O278   2.483       .  S
Zr272       O280   2.386       .  S
Zr272       O281   2.385       .  S
Zr272       O282   2.413       .  S
Zr272       O283   2.382       .  S
O273        H329   0.990       .  S
O273        H337   0.990       .  S
O274        C294   1.286       .  A
O275        C296   1.287       .  A
O276       Zr286   2.368       .  S
O276        C295   1.271       .  A
O277       Zr285   2.417       .  S
O277        C296   1.286       .  A
O278        C295   1.297       .  A
O279       Zr287   2.384       .  S
O279        C294   1.272       .  A
O280       Zr285   2.369       .  S
O280       Zr287   2.372       .  S
O281       Zr286   2.389       .  S
O281       Zr287   2.397       .  S
O281        H316   0.966       .  S
O282       Zr285   2.400       .  S
O282       Zr302   2.397       .  S
O282        H319   0.963       .  S
O283       Zr286   2.390       .  S
O283       Zr302   2.376       .  S
Zr284       O309   2.436       .  S
Zr284       O303   2.437       .  S
Zr284       O311   2.491       .  S
Zr284       O299   2.443       .  S
Zr284       O290   2.384       .  S
Zr284       O291   2.414       .  S
Zr284       O292   2.393       .  S
Zr284       O293   2.392       .  S
Zr285       O304   2.435       .  S
Zr285       O297   2.434       .  S
Zr285       O298   2.421       .  S
Zr285       O291   2.387       .  S
Zr285       O292   2.370       .  S
Zr286       O288   2.439       .  S
Zr286       O310   2.442       .  S
Zr286       O312   2.377       .  S
Zr286       O290   2.379       .  S
Zr286       O293   2.404       .  S
Zr287       O313   2.438       .  S
Zr287       O314   2.432       .  S
Zr287       O289   2.440       .  S
Zr287       O290   2.366       .  S
Zr287       O291   2.384       .  S
O288        H325   0.990       .  S
O289        H320   0.990       .  S
O289        H334   0.989       .  S
O291        H317   0.965       .  S
O292       Zr302   2.371       .  S
O293       Zr302   2.391       .  S
O293        H318   0.966       .  S
C294        C351   1.447       .  S
C295        C358   1.469       .  S
C296        C369   1.497       .  S
O297        H333   0.990       .  S
O298        C300   1.287       .  A
O299        C300   1.284       .  A
O301       Zr302   2.438       .  S
O301        H330   0.990       .  S
Zr302       O305   2.441       .  S
Zr302       O306   2.443       .  S
Zr302       O307   2.417       .  S
O303        C308   1.285       .  A
O304        H321   0.990       .  S
O304        H336   0.990       .  S
O305        H322   0.991       .  S
O306        H326   0.990       .  S
O306        H335   0.990       .  S
O307        C308   1.271       .  A
C308        C378   1.459       .  S
O309        H328   0.990       .  S
O309        H332   0.990       .  S
O310        H324   0.990       .  S
O310        H331   0.990       .  S
O311        C315   1.295       .  A
O312        C315   1.263       .  A
O313        H323   0.990       .  S
O314        H327   0.990       .  S
C315        C340   1.478       .  S
C338        C343   1.409   1_565  A
C338       C1171   1.417       .  A
C338        C416   1.470       .  S
C339        C340   1.421       .  A
C339       C1170   1.416       .  A
C339        H344   1.084       .  S
C340       C1173   1.388       .  A
C341        C342   1.386   1_565  A
C341       C1172   1.386       .  A
C341       H1177   1.086       .  S
C342        C343   1.409       .  A
C343        H346   1.084       .  S
H345       C1173   1.086       .  S
C347        C348   1.413       .  A
C347       C2016   1.403       .  A
C347        C413   1.459       .  S
C348        C349   1.421       .  A
C348        H353   1.084       .  S
C349        C350   1.384       .  A
C350       C2015   1.389       .  A
C350        H354   1.086       .  S
C351        C352   1.402       .  A
C351       C2014   1.387   1_455  A
C352       C2011   1.402   1_455  A
C352        H355   1.084       .  S
C356        C361   1.403       .  A
C356       C2021   1.410       .  A
C356        C398   1.454       .  S
C357        C358   1.418       .  A
C357       C2020   1.411   1_455  A
C357        H362   1.084       .  S
C358       C2023   1.385   1_455  A
C359        C360   1.386       .  A
C359       C2022   1.387       .  A
C359        H363   1.086       .  S
C360        C361   1.402       .  A
C361        H364   1.084       .  S
C365        C366   1.422       .  A
C365        C370   1.420       .  A
C365        C396   1.461       .  S
C366        C367   1.412       .  A
C366        H371   1.083       .  S
C367        C368   1.400       .  A
C368        C369   1.396       .  A
C368        H372   1.081       .  S
C369        C370   1.409       .  A
C370        H373   1.083       .  S
C374        C379   1.412       .  A
C374       C1207   1.410       .  A
C374        C394   1.469       .  S
C375        C376   1.422       .  A
C375       C1206   1.412   1_545  A
C375        H380   1.084       .  S
C376       C1209   1.380   1_545  A
C377        C378   1.391       .  A
C377       C1208   1.380       .  A
C377        H381   1.087       .  S
C378        C379   1.413       .  A
C379        H382   1.083       .  S
C383        H384   1.111       .  S
C383        C388   1.549       .  S
C383        C387   1.547       .  S
C383       C2885   1.554       .  S
C385        H386   1.111       .  S
C385        C391   1.546       .  S
C385        C390   1.557       .  S
C385       C2888   1.555       .  S
C387        C399   1.460       .  S
C387        C390   1.372       .  D
C388        C401   1.464       .  S
C388        C391   1.369       .  D
C389       C2879   1.555   1_445  S
C389        C404   1.476       .  S
C389        C392   1.375       .  D
C390        C393   1.475       .  S
C391        C397   1.460       .  S
C392       C2881   1.554   1_445  S
C392        C395   1.466       .  S
C393        C394   1.224       .  T
C395        C396   1.219       .  T
C397        C398   1.214       .  T
C399        C400   1.214       .  T
C401        C402   1.217       .  T
C403        C404   1.224       .  T
C405        C406   1.234       .  T
C407        C408   1.223       .  T
C409       C1242   1.218       .  T
C410       C1241   1.220       .  T
C411        C412   1.217       .  T
C413       C2078   1.217       .  T
C414       C2077   1.217       .  T
C415        C416   1.224       .  T
C417        H418   1.111       .  S
C417       C2919   1.547       .  S
C417        C422   1.555   1_565  S
C417        C421   1.551   1_655  S
C419        H420   1.111       .  S
C419       C1257   1.552       .  S
C419       C2088   1.558       .  S
C419        C426   1.573       .  S
C421        C831   1.474       .  S
C421       C1256   1.371       .  D
C422        C830   1.464       .  S
C422       C2089   1.374       .  D
C423       C2913   1.548       .  S
C423        C828   1.468       .  S
C423        C426   1.374       .  D
C424       C2083   1.558   1_455  S
C424        C826   1.467       .  S
C424       C1253   1.371       .  D
C425       C1251   1.554   1_545  S
C425        C823   1.477       .  S
C425       C2086   1.374       .  D
C426        C822   1.490       .  S
Zr427       O428   2.439       .  S
Zr427       O429   2.435       .  S
Zr427       O430   2.433       .  S
Zr427       O433   2.438       .  S
Zr427       O437   2.414       .  S
Zr427       O438   2.405       .  S
O428        H484   0.990       .  S
O428        H492   0.990       .  S
O430        C451   1.279       .  A
O431       Zr441   2.404       .  S
O431        C450   1.275       .  A
O432        C451   1.276       .  A
O433        C450   1.288       .  A
O434       Zr442   2.413       .  S
O434        C449   1.278       .  A
O435       Zr440   2.360       .  S
O435       Zr442   2.348       .  S
O436       Zr442   2.399       .  S
O436        H471   0.966       .  S
O437       Zr457   2.398       .  S
O437        H474   0.965       .  S
O438       Zr441   2.383       .  S
O438       Zr457   2.402       .  S
Zr439       O464   2.440       .  S
Zr439       O458   2.467       .  S
Zr439       O466   2.550       .  S
Zr439       O454   2.480       .  S
Zr439       O445   2.375       .  S
Zr439       O446   2.421       .  S
Zr440       O452   2.440       .  S
Zr440       O453   2.378       .  S
Zr440       O446   2.411       .  S
Zr441       O443   2.439       .  S
Zr441       O448   2.400       .  S
Zr442       O468   2.437       .  S
Zr442       O469   2.436       .  S
Zr442       O444   2.437       .  S
Zr442       O445   2.360       .  S
Zr442       O446   2.406       .  S
O443        H480   0.990       .  S
O444        H475   0.990       .  S
O444        H489   0.990       .  S
O446        H472   0.965       .  S
O447       Zr457   2.369       .  S
O448       Zr457   2.407       .  S
O448        H473   0.963       .  S
C449        C597   1.460       .  S
C450        C590   1.476       .  S
C451        C608   1.465       .  S
O452        H488   0.990       .  S
O453        C455   1.276       .  A
O454        C455   1.291       .  A
C455        C581   1.493       .  S
O456       Zr457   2.438       .  S
O456        H485   0.991       .  S
Zr457       O460   2.441       .  S
Zr457       O461   2.448       .  S
Zr457       O462   2.414       .  S
O459        H476   0.990       .  S
O459        H491   0.990       .  S
O460        H477   0.990       .  S
O461        H481   0.991       .  S
O461        H490   0.988       .  S
O462        C463   1.274       .  A
C463        C570   1.483       .  S
O464        H483   0.991       .  S
O464        H487   0.990       .  S
O465        H479   0.990   1_556  S
O465        H486   0.991       .  S
O466        C470   1.309       .  A
O467        C470   1.273       .  A
O468        H478   0.990       .  S
O469        H482   0.990       .  S
C470        C497   1.499       .  S
C493        C494   1.418       .  A
C493        C498   1.423       .  A
C493        C821   1.485       .  S
C494        C495   1.415       .  A
C494        H499   1.083       .  S
C495        C525   1.486       .  S
C495        C496   1.403       .  A
C496        C497   1.386       .  A
C496        H500   1.085       .  S
C497        C498   1.428       .  A
C498        H501   1.083       .  S
Zr502       O503   2.440       .  S
Zr502       O504   2.473   1_556  S
Zr502       O505   2.520       .  S
Zr502       O508   2.454       .  S
Zr502       O512   2.415       .  S
Zr502       O513   2.423       .  S
O503        H559   0.990       .  S
O503        H567   0.990       .  S
O505        C526   1.302       .  A
O506       Zr516   2.415   1_556  S
O506        C525   1.285       .  A
O507        C526   1.273       .  A
O508        C525   1.285       .  A
O509       Zr517   2.421       .  S
O509        C524   1.279       .  A
O510       Zr515   2.397       .  S
O510       Zr517   2.394       .  S
O511       Zr517   2.372       .  S
O511        H546   0.965       .  S
O512       Zr532   2.393       .  S
O512        H549   0.964       .  S
O513       Zr516   2.389   1_556  S
O513       Zr532   2.388       .  S
Zr514       O539   2.441       .  S
Zr514       O533   2.436       .  S
Zr514       O541   2.426       .  S
Zr514       O529   2.461       .  S
Zr514       O520   2.419       .  S
Zr514       O521   2.400       .  S
Zr515       O527   2.436       .  S
Zr515       O528   2.383       .  S
Zr515       O521   2.387       .  S
Zr516       O518   2.436   1_554  S
Zr516       O523   2.364   1_554  S
Zr517       O543   2.436       .  S
Zr517       O544   2.434       .  S
Zr517       O519   2.439       .  S
Zr517       O520   2.404       .  S
Zr517       O521   2.391       .  S
O518        H555   0.990       .  S
O519        H550   0.990       .  S
O519        H564   0.990       .  S
O521        H547   0.964       .  S
O522       Zr532   2.385       .  S
O523       Zr532   2.358       .  S
O523        H548   0.963       .  S
C524        C606   1.476       .  S
C526        C579   1.492       .  S
O527        H563   0.990       .  S
O528        C530   1.275       .  A
O529        C530   1.291       .  A
C530        C588   1.468       .  S
O531       Zr532   2.435       .  S
O531        H560   0.990       .  S
Zr532       O535   2.437       .  S
Zr532       O536   2.444       .  S
Zr532       O537   2.443       .  S
O534        H551   0.990       .  S
O534        H566   0.990       .  S
O535        H552   0.990       .  S
O536        H556   0.991       .  S
O536        H565   0.991       .  S
O537        C538   1.281       .  A
C538        C599   1.479       .  S
O539        H558   0.990       .  S
O539        H562   0.990       .  S
O540        H554   0.990       .  S
O540        H561   0.990       .  S
O541        C545   1.279       .  A
O542        C545   1.290       .  A
O543        H553   0.990       .  S
O544        H557   0.990       .  S
C545        C572   1.485       .  S
C568        C569   1.421       .  A
C568        C573   1.420       .  A
C568        C819   1.469       .  S
C569        C570   1.415       .  A
C569        H574   1.083       .  S
C570        C571   1.381       .  A
C571        C572   1.393       .  A
C571        H575   1.082       .  S
C572        C573   1.413       .  A
C573        H576   1.083       .  S
C577       C1410   1.405   1_545  A
C577        C582   1.416       .  A
C577        C825   1.460   1_545  S
C578       C1409   1.406       .  A
C578        C579   1.411       .  A
C578        H583   1.084       .  S
C579        C580   1.388       .  A
C580       C1413   1.417       .  A
C580        H584   1.083       .  S
C581       C1412   1.416       .  A
C581        C582   1.415       .  A
C582        H585   1.083       .  S
C586       C2251   1.399       .  A
C586        C591   1.408       .  A
C586        C818   1.458       .  S
C587       C2250   1.399   1_455  A
C587        C588   1.409       .  A
C587        H592   1.085       .  S
C588       C2253   1.390   1_455  A
C589       C2252   1.391       .  A
C589        C590   1.398       .  A
C589        H593   1.085       .  S
C590        C591   1.418       .  A
C591        H594   1.084       .  S
C595        C596   1.409       .  A
C595       C2264   1.422       .  A
C595        C824   1.470       .  S
C596        C597   1.406       .  A
C596        H601   1.084       .  S
C597        C598   1.386       .  A
C598       C2263   1.388       .  A
C599       C2262   1.388       .  A
C599        C600   1.420       .  A
C600       C2259   1.422       .  A
C600        H603   1.083       .  S
C604        C605   1.413       .  A
C604       C1441   1.407       .  A
C604        C816   1.450       .  S
C605        C606   1.412       .  A
C605        H610   1.084       .  S
C606        C607   1.386       .  A
C607       C1440   1.397       .  A
C607        H611   1.081       .  S
C608       C1439   1.398       .  A
C608        C609   1.402       .  A
C609       C1436   1.406   1_545  A
C609        H612   1.084       .  S
Zr613       O614   2.439       .  S
Zr613       O615   2.460       .  S
Zr613       O616   2.526       .  S
Zr613       O619   2.467       .  S
Zr613       O621   2.382       .  S
Zr613       O622   2.394       .  S
Zr613       O623   2.397       .  S
Zr613       O624   2.426       .  S
O614        H670   0.991       .  S
O614        H678   0.990       .  S
O615        C635   1.291       .  A
O616        C637   1.304       .  A
O617       Zr627   2.412       .  S
O617        C636   1.285       .  A
O618       Zr626   2.336       .  S
O618        C637   1.266       .  A
O619        C636   1.289       .  A
O620       Zr628   2.395       .  S
O620        C635   1.272       .  A
O621       Zr626   2.389       .  S
O621       Zr628   2.393       .  S
O622       Zr627   2.367       .  S
O622       Zr628   2.366       .  S
O622        H657   0.965       .  S
O623       Zr626   2.398       .  S
O623       Zr643   2.368       .  S
O623        H660   0.964       .  S
O624       Zr627   2.392       .  S
O624       Zr643   2.391       .  S
Zr625       O650   2.439       .  S
Zr625       O644   2.444       .  S
Zr625       O652   2.445       .  S
Zr625       O640   2.502       .  S
Zr625       O631   2.416       .  S
Zr625       O632   2.394       .  S
Zr625       O633   2.371       .  S
Zr625       O634   2.397       .  S
Zr626       O645   2.437       .  S
Zr626       O638   2.436       .  S
Zr626       O639   2.358       .  S
Zr626       O632   2.390       .  S
Zr626       O633   2.381       .  S
Zr627       O629   2.434       .  S
Zr627       O651   2.436       .  S
Zr627       O653   2.427       .  S
Zr627       O631   2.388       .  S
Zr627       O634   2.360       .  S
Zr628       O654   2.435       .  S
Zr628       O655   2.436       .  S
Zr628       O630   2.441       .  S
Zr628       O631   2.385       .  S
Zr628       O632   2.381       .  S
O629        H666   0.990       .  S
O630        H661   0.991       .  S
O630        H675   0.990       .  S
O632        H658   0.965       .  S
O633       Zr643   2.396       .  S
O634       Zr643   2.370       .  S
O634        H659   0.965       .  S
C635        C758   1.456       .  S
C636        C783   1.502       .  S
C637        C792   1.466       .  S
O638        H674   0.990       .  S
O639        C641   1.268       .  A
O640        C641   1.300       .  A
C641        C765   1.472       .  S
O642       Zr643   2.439       .  S
O642        H671   0.990       .  S
Zr643       O646   2.440       .  S
Zr643       O647   2.438       .  S
Zr643       O648   2.391       .  S
O644        C649   1.287       .  A
O645        H662   0.990       .  S
O645        H677   0.990       .  S
O646        H663   0.990       .  S
O647        H667   0.990       .  S
O647        H676   0.990       .  S
O648        C649   1.274       .  A
C649        C776   1.450       .  S
O650        H669   0.990       .  S
O650        H673   0.991       .  S
O651        H665   0.990       .  S
O651        H672   0.990       .  S
O652        C656   1.283       .  A
O653        C656   1.288       .  A
O654        H664   0.990       .  S
O655        H668   0.990       .  S
C656        C681   1.494       .  S
C679        C680   1.421       .  A
C679        C684   1.420       .  A
C679        C827   1.461       .  S
C680        C681   1.411       .  A
C680        H685   1.083       .  S
C681        C682   1.393       .  A
C682        C683   1.397       .  A
C682        H686   1.082       .  S
C683        C716   1.497       .  S
C683        C684   1.411       .  A
C684        H687   1.083       .  S
Zr688       O689   2.441       .  S
Zr688       O690   2.433       .  S
Zr688       O691   2.464       .  S
Zr688       O694   2.483       .  S
Zr688       O696   2.387       .  S
Zr688       O697   2.381       .  S
Zr688       O698   2.413       .  S
Zr688       O699   2.384       .  S
O689        H745   0.990       .  S
O689        H753   0.990       .  S
O690        C710   1.286       .  A
O691        C712   1.286       .  A
O692       Zr702   2.372       .  S
O692        C711   1.271       .  A
O693       Zr701   2.425       .  S
O693        C712   1.287       .  A
O694        C711   1.297       .  A
O695       Zr703   2.389       .  S
O695        C710   1.273       .  A
O696       Zr701   2.371       .  S
O696       Zr703   2.369       .  S
O697       Zr702   2.389       .  S
O697       Zr703   2.396       .  S
O697        H732   0.966       .  S
O698       Zr701   2.397       .  S
O698       Zr718   2.394       .  S
O698        H735   0.963       .  S
O699       Zr702   2.390       .  S
O699       Zr718   2.378       .  S
Zr700       O725   2.438       .  S
Zr700       O719   2.434       .  S
Zr700       O727   2.488       .  S
Zr700       O715   2.451       .  S
Zr700       O706   2.385       .  S
Zr700       O707   2.416       .  S
Zr700       O708   2.394       .  S
Zr700       O709   2.397       .  S
Zr701       O720   2.436       .  S
Zr701       O713   2.434       .  S
Zr701       O714   2.421       .  S
Zr701       O707   2.391       .  S
Zr701       O708   2.369       .  S
Zr702       O704   2.439       .  S
Zr702       O726   2.443       .  S
Zr702       O728   2.379       .  S
Zr702       O706   2.380       .  S
Zr702       O709   2.403       .  S
Zr703       O729   2.437       .  S
Zr703       O730   2.431       .  S
Zr703       O705   2.439       .  S
Zr703       O706   2.368       .  S
Zr703       O707   2.390       .  S
O704        H741   0.990       .  S
O705        H736   0.989       .  S
O705        H750   0.989       .  S
O707        H733   0.965       .  S
O708       Zr718   2.368       .  S
O709       Zr718   2.392       .  S
O709        H734   0.966       .  S
C710        C767   1.450       .  S
C711        C774   1.471       .  S
C712        C785   1.494       .  S
O713        H749   0.990       .  S
O714        C716   1.287       .  A
O715        C716   1.286       .  A
O717       Zr718   2.437       .  S
O717        H746   0.990       .  S
Zr718       O721   2.442       .  S
Zr718       O722   2.442       .  S
Zr718       O723   2.419       .  S
O719        C724   1.284       .  A
O720        H737   0.990       .  S
O720        H752   0.990       .  S
O721        H738   0.991       .  S
O722        H742   0.990       .  S
O722        H751   0.990       .  S
O723        C724   1.270       .  A
C724        C794   1.460       .  S
O725        H744   0.990       .  S
O725        H748   0.991       .  S
O726        H740   0.990       .  S
O726        H747   0.990       .  S
O727        C731   1.295       .  A
O728        C731   1.264       .  A
O729        H739   0.990       .  S
O730        H743   0.990       .  S
C731        C756   1.478       .  S
C754       C1587   1.415       .  A
C754        C759   1.410   1_565  A
C754        C832   1.467       .  S
C755       C1586   1.416       .  A
C755        C756   1.421       .  A
C755        H760   1.084       .  S
C756       C1589   1.387       .  A
C757       C1588   1.386       .  A
C757        C758   1.387   1_565  A
C757       H1593   1.086       .  S
C758        C759   1.410       .  A
C759        H762   1.084       .  S
H761       C1589   1.086       .  S
C763        C764   1.412       .  A
C763       C2432   1.404       .  A
C763        C829   1.457       .  S
C764        C765   1.419       .  A
C764        H769   1.084       .  S
C765        C766   1.384       .  A
C766       C2431   1.388       .  A
C766        H770   1.086       .  S
C767       C2430   1.388   1_455  A
C767        C768   1.403       .  A
C768       C2427   1.404   1_455  A
C768        H771   1.084       .  S
C772       C2437   1.410       .  A
C772        C777   1.404       .  A
C772        C814   1.454       .  S
C773       C2436   1.411   1_455  A
C773        C774   1.418       .  A
C773        H778   1.084       .  S
C774       C2439   1.388   1_455  A
C775       C2438   1.389       .  A
C775        C776   1.386       .  A
C775        H779   1.086       .  S
C776        C777   1.403       .  A
C777        H780   1.084       .  S
C781        C782   1.421       .  A
C781        C786   1.419       .  A
C781        C812   1.460       .  S
C782        C783   1.412       .  A
C782        H787   1.083       .  S
C783        C784   1.401       .  A
C784        C785   1.395       .  A
C784        H788   1.082       .  S
C785        C786   1.408       .  A
C786        H789   1.083       .  S
C790       C1623   1.412       .  A
C790        C795   1.411       .  A
C790        C810   1.471       .  S
C791       C1622   1.410   1_545  A
C791        C792   1.421       .  A
C791        H796   1.084       .  S
C792       C1625   1.381   1_545  A
C793       C1624   1.382       .  A
C793        C794   1.392       .  A
C793        H797   1.086       .  S
C794        C795   1.413       .  A
C795        H798   1.084       .  S
C799        H800   1.111       .  S
C799       C3301   1.554       .  S
C799        C804   1.549       .  S
C799        C803   1.546       .  S
C801        H802   1.111       .  S
C801        C807   1.546       .  S
C801        C806   1.557       .  S
C801       C3304   1.556       .  S
C803        C815   1.456       .  S
C803        C806   1.371       .  D
C804        C817   1.464       .  S
C804        C807   1.368       .  D
C805       C3295   1.555   1_445  S
C805        C820   1.475       .  S
C805        C808   1.375       .  D
C806        C809   1.476       .  S
C807        C813   1.460       .  S
C808       C3297   1.554   1_445  S
C808        C811   1.465       .  S
C809        C810   1.225       .  T
C811        C812   1.218       .  T
C813        C814   1.214       .  T
C815        C816   1.212       .  T
C817        C818   1.217       .  T
C819        C820   1.224       .  T
C821        C822   1.233       .  T
C823        C824   1.225       .  T
C825       C1658   1.218       .  T
C826       C1657   1.219       .  T
C827        C828   1.219       .  T
C829       C2494   1.216       .  T
C830       C2493   1.217       .  T
C831        C832   1.223       .  T
C833        H834   1.111       .  S
C833       C1671   1.548       .  S
C833        C838   1.555       .  S
C833        C837   1.552   1_655  S
C835        H836   1.111       .  S
C835       C2504   1.557       .  S
C835        C842   1.570       .  S
C837       C1247   1.475       .  S
C838       C1246   1.465       .  S
C838       C2505   1.373       .  D
C839       C1665   1.546       .  S
C839       C1244   1.463       .  S
C839        C842   1.373       .  D
C840       C2499   1.557   1_455  S
C840       C1242   1.465       .  S
C841       C1239   1.477       .  S
C841       C2502   1.373       .  D
C842       C1238   1.489       .  S
Zr843       O844   2.439       .  S
Zr843       O845   2.432       .  S
Zr843       O846   2.436       .  S
Zr843       O849   2.444       .  S
Zr843      O1267   2.373   1_554  S
Zr843      O1268   2.382   1_554  S
Zr843       O853   2.417       .  S
Zr843       O854   2.404       .  S
O844        H900   0.990       .  S
O844        H908   0.990       .  S
O845       C1281   1.286   1_554  A
O846        C867   1.281       .  A
O847       Zr857   2.407       .  S
O847        C866   1.275       .  A
O848      Zr1272   2.411       .  S
O848        C867   1.276   1_556  A
O849        C866   1.289       .  A
O850       Zr858   2.428       .  S
O850        C865   1.280       .  A
O851      Zr1259   2.371       .  S
O851       Zr856   2.357       .  S
O851       Zr858   2.343       .  S
O852      Zr1259   2.386       .  S
O852      Zr1273   2.397       .  S
O852       Zr858   2.400       .  S
O852        H887   0.966       .  S
O853      Zr1272   2.401   1_554  S
O853       Zr873   2.401       .  S
O853        H890   0.966       .  S
O854       Zr857   2.385       .  S
O854       Zr873   2.404       .  S
Zr855       O880   2.439       .  S
Zr855       O874   2.477       .  S
Zr855       O882   2.549       .  S
Zr855       O870   2.477       .  S
Zr855       O861   2.383       .  S
Zr855       O862   2.423       .  S
Zr855      O1279   2.374       .  S
Zr855      O1280   2.397       .  S
Zr856      O1291   2.441       .  S
Zr856       O868   2.438       .  S
Zr856      O1264   2.411       .  S
Zr856       O869   2.381       .  S
Zr856      O1269   2.402       .  S
Zr856       O862   2.407       .  S
Zr856      O1279   2.362       .  S
Zr857       O859   2.438       .  S
Zr857      O1297   2.444   1_554  S
Zr857      O1299   2.396   1_554  S
Zr857      O1268   2.395   1_554  S
Zr857      O1277   2.378   1_554  S
Zr857       O864   2.403       .  S
Zr858       O884   2.439       .  S
Zr858       O885   2.436       .  S
Zr858       O860   2.437       .  S
Zr858       O861   2.370       .  S
Zr858       O862   2.406       .  S
O859        H896   0.990       .  S
O860        H891   0.990       .  S
O860        H905   0.990       .  S
O861      Zr1273   2.383       .  S
O862        H888   0.965       .  S
O863      Zr1271   2.378   1_554  S
O863      Zr1272   2.369   1_554  S
O863       Zr873   2.367       .  S
O864      Zr1271   2.397   1_554  S
O864       Zr873   2.406       .  S
O864        H889   0.964       .  S
C865       O1261   1.286       .  A
C865       C1013   1.465       .  S
C866       C1006   1.480       .  S
C867       C1024   1.465       .  S
O868        H904   0.989       .  S
O869        C871   1.277       .  A
O870        C871   1.290       .  A
C871        C997   1.492       .  S
O872       Zr873   2.438       .  S
O872        H901   0.990       .  S
Zr873       O876   2.441       .  S
Zr873       O877   2.447       .  S
Zr873       O878   2.416       .  S
O874       C1295   1.298       .  A
O875      Zr1272   2.438   1_554  S
O875        H892   0.990       .  S
O875        H907   0.990       .  S
O876        H893   0.990       .  S
O877        H897   0.991       .  S
O877        H906   0.989       .  S
O878        C879   1.274       .  A
C879       O1290   1.296   1_554  A
C879        C986   1.486       .  S
O880        H899   0.990       .  S
O880        H903   0.990       .  S
O881      Zr1273   2.446       .  S
O881        H895   0.990       .  S
O881        H902   0.991       .  S
O882        C886   1.309       .  A
O883      Zr1273   2.400       .  S
O883        C886   1.273       .  A
O884        H894   0.990       .  S
O885        H898   0.990       .  S
C886        C913   1.501       .  S
C909        C910   1.417       .  A
C909        C914   1.424       .  A
C909       C1237   1.484       .  S
C910        C911   1.415       .  A
C910        H915   1.083       .  S
C911        C941   1.486       .  S
C911        C912   1.404       .  A
C912        C913   1.386       .  A
C912        H916   1.084       .  S
C913        C914   1.429       .  A
C914        H917   1.083       .  S
Zr918       O919   2.441       .  S
Zr918       O920   2.469       .  S
Zr918       O921   2.513       .  S
Zr918       O924   2.454       .  S
Zr918      O1342   2.380       .  S
Zr918      O1343   2.403       .  S
Zr918       O928   2.415       .  S
Zr918       O929   2.419       .  S
O919        H975   0.990       .  S
O919        H983   0.990       .  S
O920       C1356   1.292       .  A
O921        C942   1.300       .  A
O922       Zr932   2.414       .  S
O922        C941   1.284       .  A
O923      Zr1347   2.379       .  S
O923        C942   1.274       .  A
O924        C941   1.285       .  A
O925       Zr933   2.429       .  S
O925        C940   1.281       .  A
O926      Zr1334   2.381   1_554  S
O926       Zr931   2.400   1_554  S
O926       Zr933   2.393       .  S
O927      Zr1334   2.403   1_554  S
O927      Zr1348   2.368       .  S
O927       Zr933   2.372       .  S
O927        H962   0.965       .  S
O928      Zr1347   2.406       .  S
O928       Zr948   2.396       .  S
O928        H965   0.964       .  S
O929       Zr932   2.394       .  S
O929       Zr948   2.392       .  S
Zr930       O955   2.440       .  S
Zr930       O949   2.440       .  S
Zr930       O957   2.424       .  S
Zr930       O945   2.460       .  S
Zr930       O936   2.421       .  S
Zr930       O937   2.403       .  S
Zr930      O1354   2.380   1_554  S
Zr930      O1355   2.393   1_554  S
Zr931      O1366   2.439       .  S
Zr931       O943   2.435   1_556  S
Zr931      O1339   2.373       .  S
Zr931       O944   2.390   1_556  S
Zr931      O1344   2.406       .  S
Zr931       O937   2.387   1_556  S
Zr931      O1354   2.392       .  S
Zr932       O934   2.436       .  S
Zr932      O1372   2.435       .  S
Zr932      O1374   2.433       .  S
Zr932      O1343   2.367       .  S
Zr932      O1352   2.373       .  S
Zr932       O939   2.371       .  S
Zr933       O959   2.437       .  S
Zr933       O960   2.435       .  S
Zr933       O935   2.439       .  S
Zr933       O936   2.407       .  S
Zr933       O937   2.392       .  S
O934        H971   0.990       .  S
O935        H966   0.991       .  S
O935        H980   0.990       .  S
O936      Zr1348   2.374       .  S
O937        H963   0.964       .  S
O938      Zr1346   2.383       .  S
O938      Zr1347   2.393       .  S
O938       Zr948   2.386       .  S
O939      Zr1346   2.396       .  S
O939       Zr948   2.356       .  S
O939        H964   0.963       .  S
C940       O1336   1.293       .  A
C940       C1022   1.482       .  S
C942        C995   1.490       .  S
O943        H979   0.990       .  S
O944        C946   1.277       .  A
O945        C946   1.291       .  A
C946       C1004   1.470       .  S
O947       Zr948   2.439       .  S
O947        H976   0.991       .  S
Zr948       O951   2.437       .  S
Zr948       O952   2.449       .  S
Zr948       O953   2.448       .  S
O949       C1370   1.289   1_554  A
O950      Zr1347   2.438       .  S
O950        H967   0.990       .  S
O950        H982   0.990       .  S
O951        H968   0.990       .  S
O952        H972   0.991       .  S
O952        H981   0.991       .  S
O953        C954   1.281       .  A
C954       O1365   1.288       .  A
C954       C1015   1.480       .  S
O955        H974   0.991       .  S
O955        H978   0.990       .  S
O956      Zr1348   2.437       .  S
O956        H970   0.990       .  S
O956        H977   0.990       .  S
O957        C961   1.279       .  A
O958      Zr1348   2.442       .  S
O958        C961   1.291       .  A
O959        H969   0.990       .  S
O960        H973   0.990       .  S
C961        C988   1.487       .  S
C984        C985   1.422       .  A
C984        C989   1.421       .  A
C984       C1235   1.470       .  S
C985        C986   1.416       .  A
C985        H990   1.083       .  S
C986        C987   1.381       .  A
C987        C988   1.393       .  A
C987        H991   1.082       .  S
C988        C989   1.414       .  A
C989        H992   1.083       .  S
C993        C998   1.417       .  A
C993       C1241   1.463       .  S
C994        C995   1.410       .  A
C994        H999   1.084       .  S
C995        C996   1.388   1_565  A
C996       H1000   1.082       .  S
C997        C998   1.416       .  A
C998       H1001   1.083       .  S
C1002      C2667   1.398       .  A
C1002      C1007   1.409       .  A
C1002      C1234   1.459       .  S
C1003      C2666   1.399   1_455  A
C1003      C1004   1.410       .  A
C1003      H1008   1.084       .  S
C1004      C2669   1.392   1_455  A
C1005      C2668   1.392       .  A
C1005      C1006   1.400       .  A
C1005      H1009   1.084       .  S
C1006      C1007   1.420       .  A
C1007      H1010   1.084       .  S
C1011      C1012   1.410       .  A
C1011      C2680   1.423       .  A
C1011      C1240   1.470       .  S
C1012      C1013   1.407       .  A
C1012      H1017   1.084       .  S
C1013      C1014   1.387       .  A
C1014      C2679   1.389       .  A
C1014      H1434   1.086       .  S
C1015      C2678   1.389   1_455  A
C1015      C1016   1.420       .  A
C1016      C2675   1.422       .  A
C1016      H1019   1.083       .  S
H1018      C1430   1.086       .  S
C1020      C1021   1.416       .  A
C1020      C1232   1.453       .  S
C1021      C1022   1.414       .  A
C1021      H1026   1.083       .  S
C1022      C1023   1.388   1_565  A
C1023      H1027   1.080       .  S
C1024      C1025   1.402       .  A
C1025      H1028   1.084       .  S
Zr1029     O1030   2.440       .  S
Zr1029     O1031   2.461       .  S
Zr1029     O1032   2.524       .  S
Zr1029     O1035   2.467       .  S
Zr1029     O1037   2.381       .  S
Zr1029     O1038   2.398       .  S
Zr1029     O1039   2.394       .  S
Zr1029     O1040   2.430       .  S
O1030      H1086   0.991       .  S
O1030      H1094   0.990       .  S
O1031      C1051   1.291       .  A
O1032      C1053   1.303       .  A
O1033     Zr1043   2.418       .  S
O1033      C1052   1.285       .  A
O1034     Zr1042   2.338       .  S
O1034      C1053   1.266       .  A
O1035      C1052   1.288       .  A
O1036     Zr1044   2.393       .  S
O1036      C1051   1.272       .  A
O1037     Zr1042   2.388       .  S
O1037     Zr1044   2.392       .  S
O1038     Zr1043   2.371       .  S
O1038     Zr1044   2.365       .  S
O1038      H1073   0.966       .  S
O1039     Zr1042   2.400       .  S
O1039     Zr1059   2.367       .  S
O1039      H1076   0.964       .  S
O1040     Zr1043   2.390       .  S
O1040     Zr1059   2.392       .  S
Zr1041     O1066   2.439       .  S
Zr1041     O1060   2.443       .  S
Zr1041     O1068   2.442       .  S
Zr1041     O1056   2.504       .  S
Zr1041     O1047   2.416       .  S
Zr1041     O1048   2.392       .  S
Zr1041     O1049   2.369       .  S
Zr1041     O1050   2.400       .  S
Zr1042     O1061   2.438       .  S
Zr1042     O1054   2.436       .  S
Zr1042     O1055   2.360       .  S
Zr1042     O1048   2.391       .  S
Zr1042     O1049   2.383       .  S
Zr1043     O1045   2.435       .  S
Zr1043     O1067   2.433       .  S
Zr1043     O1069   2.429       .  S
Zr1043     O1047   2.386       .  S
Zr1043     O1050   2.359       .  S
Zr1044     O1070   2.436       .  S
Zr1044     O1071   2.435       .  S
Zr1044     O1046   2.439       .  S
Zr1044     O1047   2.381       .  S
Zr1044     O1048   2.379       .  S
O1045      H1082   0.990       .  S
O1046      H1077   0.990       .  S
O1046      H1091   0.990       .  S
O1048      H1074   0.965       .  S
O1049     Zr1059   2.395       .  S
O1050     Zr1059   2.370       .  S
O1050      H1075   0.965       .  S
C1051      C1174   1.457       .  S
C1052      C1199   1.504       .  S
C1053      C1208   1.465       .  S
O1054      H1090   0.990       .  S
O1055      C1057   1.269       .  A
O1056      C1057   1.300       .  A
C1057      C1181   1.473       .  S
O1058     Zr1059   2.437       .  S
O1058      H1087   0.990       .  S
Zr1059     O1062   2.438       .  S
Zr1059     O1063   2.439       .  S
Zr1059     O1064   2.390       .  S
O1060      C1065   1.288       .  A
O1061      H1078   0.990       .  S
O1061      H1093   0.990       .  S
O1062      H1079   0.990       .  S
O1063      H1083   0.991       .  S
O1063      H1092   0.989       .  S
O1064      C1065   1.273       .  A
C1065      C1192   1.449       .  S
O1066      H1085   0.990       .  S
O1066      H1089   0.990       .  S
O1067      H1081   0.990       .  S
O1067      H1088   0.990       .  S
O1068      C1072   1.282       .  A
O1069      C1072   1.288       .  A
O1070      H1080   0.990       .  S
O1071      H1084   0.990       .  S
C1072      C1097   1.494       .  S
C1095      C1096   1.420       .  A
C1095      C1100   1.417       .  A
C1095      C1243   1.456       .  S
C1096      C1097   1.410       .  A
C1096      H1101   1.083       .  S
C1097      C1098   1.393       .  A
C1098      C1099   1.396       .  A
C1098      H1102   1.082       .  S
C1099      C1132   1.491       .  S
C1099      C1100   1.408       .  A
C1100      H1103   1.083       .  S
Zr1104     O1105   2.441       .  S
Zr1104     O1106   2.433       .  S
Zr1104     O1107   2.471       .  S
Zr1104     O1110   2.483       .  S
Zr1104     O1112   2.387       .  S
Zr1104     O1113   2.386       .  S
Zr1104     O1114   2.413       .  S
Zr1104     O1115   2.385       .  S
O1105      H1161   0.990       .  S
O1105      H1169   0.990       .  S
O1106      C1126   1.285       .  A
O1107      C1128   1.287       .  A
O1108     Zr1118   2.366       .  S
O1108      C1127   1.270       .  A
O1109     Zr1117   2.421       .  S
O1109      C1128   1.287       .  A
O1110      C1127   1.297       .  A
O1111     Zr1119   2.393       .  S
O1111      C1126   1.273       .  A
O1112     Zr1117   2.369       .  S
O1112     Zr1119   2.371       .  S
O1113     Zr1118   2.391       .  S
O1113     Zr1119   2.399       .  S
O1113      H1148   0.966       .  S
O1114     Zr1117   2.396       .  S
O1114     Zr1134   2.398       .  S
O1114      H1151   0.963       .  S
O1115     Zr1118   2.391       .  S
O1115     Zr1134   2.379       .  S
Zr1116     O1141   2.437       .  S
Zr1116     O1135   2.435       .  S
Zr1116     O1143   2.496       .  S
Zr1116     O1131   2.442       .  S
Zr1116     O1122   2.382       .  S
Zr1116     O1123   2.418       .  S
Zr1116     O1124   2.394       .  S
Zr1116     O1125   2.391       .  S
Zr1117     O1136   2.436       .  S
Zr1117     O1129   2.433       .  S
Zr1117     O1130   2.415       .  S
Zr1117     O1123   2.389       .  S
Zr1117     O1124   2.370       .  S
Zr1118     O1120   2.439       .  S
Zr1118     O1142   2.441       .  S
Zr1118     O1144   2.378       .  S
Zr1118     O1122   2.377       .  S
Zr1118     O1125   2.402       .  S
Zr1119     O1145   2.437       .  S
Zr1119     O1146   2.433       .  S
Zr1119     O1121   2.441       .  S
Zr1119     O1122   2.370       .  S
Zr1119     O1123   2.385       .  S
O1120      H1157   0.990       .  S
O1121      H1152   0.990       .  S
O1121      H1166   0.989       .  S
O1123      H1149   0.965       .  S
O1124     Zr1134   2.366       .  S
O1125     Zr1134   2.393       .  S
O1125      H1150   0.966       .  S
C1126      C1183   1.452       .  S
C1127      C1190   1.469       .  S
C1128      C1201   1.497       .  S
O1129      H1165   0.990       .  S
O1130      C1132   1.286       .  A
O1131      C1132   1.284       .  A
O1133     Zr1134   2.437       .  S
O1133      H1162   0.990       .  S
Zr1134     O1137   2.441       .  S
Zr1134     O1138   2.443       .  S
Zr1134     O1139   2.419       .  S
O1135      C1140   1.284       .  A
O1136      H1153   0.990       .  S
O1136      H1168   0.990       .  S
O1137      H1154   0.991       .  S
O1138      H1158   0.990       .  S
O1138      H1167   0.990       .  S
O1139      C1140   1.270       .  A
C1140      C1210   1.461       .  S
O1141      H1160   0.990       .  S
O1141      H1164   0.990       .  S
O1142      H1156   0.990       .  S
O1142      H1163   0.990       .  S
O1143      C1147   1.297       .  A
O1144      C1147   1.264       .  A
O1145      H1155   0.990       .  S
O1146      H1159   0.990       .  S
C1147      C1172   1.479       .  S
C1170      C1175   1.409       .  A
C1170      C1248   1.468       .  S
C1171      C1172   1.423       .  A
C1171      H1176   1.083       .  S
C1173      C1174   1.387       .  A
C1174      C1175   1.410       .  A
C1175      H1178   1.084       .  S
C1179      C1180   1.412       .  A
C1179      C2848   1.403       .  A
C1179      C1245   1.457       .  S
C1180      C1181   1.419       .  A
C1180      H1185   1.084       .  S
C1181      C1182   1.385       .  A
C1182      C2847   1.389       .  A
C1182      H1186   1.086       .  S
C1183      C2846   1.389   1_455  A
C1183      C1184   1.404       .  A
C1184      C2843   1.404   1_455  A
C1184      H1187   1.084       .  S
C1188      C2853   1.412       .  A
C1188      C1193   1.405       .  A
C1188      C1230   1.459       .  S
C1189      C2852   1.411   1_455  A
C1189      C1190   1.419       .  A
C1189      H1194   1.084       .  S
C1190      C2855   1.385   1_455  A
C1191      C2854   1.386       .  A
C1191      C1192   1.386       .  A
C1191      H1195   1.086       .  S
C1192      C1193   1.405       .  A
C1193      H1196   1.084       .  S
C1197      C1198   1.422       .  A
C1197      C1202   1.420       .  A
C1197      C1228   1.460       .  S
C1198      C1199   1.412       .  A
C1198      H1203   1.083       .  S
C1199      C1200   1.401       .  A
C1200      C1201   1.396       .  A
C1200      H1204   1.082       .  S
C1201      C1202   1.409       .  A
C1202      H1205   1.083       .  S
C1206      C1211   1.412       .  A
C1206      C1226   1.471       .  S
C1207      C1208   1.420       .  A
C1207      H1212   1.084       .  S
C1209      C1210   1.391       .  A
C1209      H1213   1.087       .  S
C1210      C1211   1.413       .  A
C1211      H1214   1.083       .  S
C1215      H1216   1.111       .  S
C1215      C2053   1.555   1_565  S
C1215      C1220   1.551       .  S
C1215      C1219   1.547       .  S
C1217      H1218   1.111       .  S
C1217      C1223   1.548       .  S
C1217      C1222   1.558       .  S
C1217      C2056   1.556   1_565  S
C1219      C1231   1.459       .  S
C1219      C1222   1.372       .  D
C1220      C1233   1.465       .  S
C1220      C1223   1.368       .  D
C1221      C2047   1.554   1_455  S
C1221      C1236   1.476       .  S
C1221      C1224   1.375       .  D
C1222      C1225   1.476       .  S
C1223      C1229   1.465       .  S
C1224      C2049   1.554   1_455  S
C1224      C1227   1.465       .  S
C1225      C1226   1.225       .  T
C1227      C1228   1.218       .  T
C1229      C1230   1.217       .  T
C1231      C1232   1.214       .  T
C1233      C1234   1.217       .  T
C1235      C1236   1.225       .  T
C1237      C1238   1.233       .  T
C1239      C1240   1.225       .  T
C1243      C1244   1.216       .  T
C1245      C2910   1.216       .  T
C1246      C2909   1.218       .  T
C1247      C1248   1.223       .  T
C1249      H1250   1.111       .  S
C1249      C2087   1.546       .  S
C1249      C1254   1.555       .  S
C1249      C1253   1.551   1_655  S
C1251      H1252   1.111       .  S
C1251      C2920   1.560       .  S
C1251      C1258   1.573       .  S
C1253      C1663   1.476       .  S
C1254      C1662   1.462       .  S
C1254      C2921   1.374       .  D
C1255      C2081   1.547       .  S
C1255      C1660   1.466       .  S
C1255      C1258   1.373       .  D
C1256      C2915   1.557   1_455  S
C1256      C1658   1.466       .  S
C1257      C1655   1.476       .  S
C1257      C2918   1.374       .  D
C1258      C1654   1.490       .  S
Zr1259     O1260   2.439       .  S
Zr1259     O1261   2.428       .  S
Zr1259     O1262   2.439       .  S
Zr1259     O1265   2.436       .  S
Zr1259     O1269   2.412       .  S
Zr1259     O1270   2.405       .  S
O1260      H1316   0.990       .  S
O1260      H1324   0.990       .  S
O1262      C1283   1.281       .  A
O1263     Zr1273   2.408       .  S
O1263      C1282   1.275       .  A
O1264      C1283   1.276       .  A
O1265      C1282   1.287       .  A
O1266     Zr1274   2.426       .  S
O1266      C1281   1.281       .  A
O1267     Zr1272   2.355       .  S
O1267     Zr1274   2.344       .  S
O1268     Zr1274   2.398       .  S
O1268      H1303   0.966       .  S
O1269     Zr1289   2.399       .  S
O1269      H1306   0.965       .  S
O1270     Zr1273   2.387       .  S
O1270     Zr1289   2.403       .  S
Zr1271     O1296   2.439       .  S
Zr1271     O1290   2.468       .  S
Zr1271     O1298   2.552       .  S
Zr1271     O1286   2.486       .  S
Zr1271     O1277   2.379       .  S
Zr1271     O1278   2.423       .  S
Zr1272     O1284   2.437       .  S
Zr1272     O1285   2.372       .  S
Zr1272     O1278   2.403       .  S
Zr1273     O1275   2.439       .  S
Zr1273     O1280   2.404       .  S
Zr1274     O1300   2.437       .  S
Zr1274     O1301   2.435       .  S
Zr1274     O1276   2.437       .  S
Zr1274     O1277   2.368       .  S
Zr1274     O1278   2.409       .  S
O1275      H1312   0.990       .  S
O1276      H1307   0.990       .  S
O1276      H1321   0.990       .  S
O1278      H1304   0.965       .  S
O1279     Zr1289   2.362       .  S
O1280     Zr1289   2.408       .  S
O1280      H1305   0.963       .  S
C1281      C1429   1.464       .  S
C1282      C1422   1.475       .  S
C1283      C1440   1.466       .  S
O1284      H1320   0.989       .  S
O1285      C1287   1.275       .  A
O1286      C1287   1.292       .  A
C1287      C1413   1.495       .  S
O1288     Zr1289   2.438       .  S
O1288      H1317   0.990       .  S
Zr1289     O1292   2.440       .  S
Zr1289     O1293   2.447       .  S
Zr1289     O1294   2.413       .  S
O1291      H1308   0.990       .  S
O1291      H1323   0.989       .  S
O1292      H1309   0.990       .  S
O1293      H1313   0.991       .  S
O1293      H1322   0.989       .  S
O1294      C1295   1.273       .  A
C1295      C1402   1.486       .  S
O1296      H1315   0.991       .  S
O1296      H1319   0.990       .  S
O1297      H1311   0.990   1_556  S
O1297      H1318   0.991       .  S
O1298      C1302   1.310       .  A
O1299      C1302   1.273       .  A
O1300      H1310   0.990       .  S
O1301      H1314   0.990       .  S
C1302      C1329   1.498       .  S
C1325      C1326   1.417       .  A
C1325      C1330   1.423       .  A
C1325      C1653   1.485       .  S
C1326      C1327   1.416       .  A
C1326      H1331   1.083       .  S
C1327      C1357   1.488       .  S
C1327      C1328   1.404       .  A
C1328      C1329   1.386       .  A
C1328      H1332   1.085       .  S
C1329      C1330   1.429       .  A
C1330      H1333   1.083       .  S
Zr1334     O1335   2.440       .  S
Zr1334     O1336   2.473   1_556  S
Zr1334     O1337   2.520       .  S
Zr1334     O1340   2.456       .  S
Zr1334     O1344   2.413       .  S
Zr1334     O1345   2.421       .  S
O1335      H1391   0.990       .  S
O1335      H1399   0.991       .  S
O1337      C1358   1.301       .  A
O1338     Zr1348   2.416   1_556  S
O1338      C1357   1.285       .  A
O1339      C1358   1.272       .  A
O1340      C1357   1.286       .  A
O1341     Zr1349   2.427       .  S
O1341      C1356   1.280       .  A
O1342     Zr1347   2.398       .  S
O1342     Zr1349   2.392       .  S
O1343     Zr1349   2.372       .  S
O1343      H1378   0.965       .  S
O1344     Zr1364   2.395       .  S
O1344      H1381   0.964       .  S
O1345     Zr1348   2.393   1_556  S
O1345     Zr1364   2.392       .  S
Zr1346     O1371   2.440       .  S
Zr1346     O1365   2.435       .  S
Zr1346     O1373   2.430       .  S
Zr1346     O1361   2.466       .  S
Zr1346     O1352   2.421       .  S
Zr1346     O1353   2.405       .  S
Zr1347     O1359   2.437       .  S
Zr1347     O1360   2.390       .  S
Zr1347     O1353   2.386       .  S
Zr1348     O1350   2.436   1_554  S
Zr1348     O1355   2.369   1_554  S
Zr1349     O1375   2.437       .  S
Zr1349     O1376   2.435       .  S
Zr1349     O1351   2.439       .  S
Zr1349     O1352   2.406       .  S
Zr1349     O1353   2.393       .  S
O1350      H1387   0.990   1_556  S
O1351      H1382   0.991       .  S
O1351      H1396   0.990       .  S
O1353      H1379   0.964       .  S
O1354     Zr1364   2.384       .  S
O1355     Zr1364   2.356       .  S
O1355      H1380   0.963       .  S
C1356      C1438   1.480       .  S
C1358      C1411   1.492       .  S
O1359      H1395   0.990       .  S
O1360      C1362   1.277       .  A
O1361      C1362   1.292       .  A
C1362      C1420   1.473       .  S
O1363     Zr1364   2.437       .  S
O1363      H1392   0.990       .  S
Zr1364     O1367   2.438       .  S
Zr1364     O1368   2.444       .  S
Zr1364     O1369   2.443       .  S
O1366      H1383   0.990       .  S
O1366      H1398   0.990       .  S
O1367      H1384   0.990       .  S
O1368      H1388   0.991       .  S
O1368      H1397   0.991       .  S
O1369      C1370   1.280       .  A
C1370      C1431   1.481       .  S
O1371      H1390   0.991       .  S
O1371      H1394   0.990       .  S
O1372      H1386   0.991       .  S
O1372      H1393   0.990       .  S
O1373      C1377   1.280       .  A
O1374      C1377   1.289       .  A
O1375      H1385   0.990       .  S
O1376      H1389   0.990       .  S
C1377      C1404   1.487       .  S
C1400      C1401   1.423       .  A
C1400      C1405   1.420       .  A
C1400      C1651   1.471       .  S
C1401      C1402   1.418       .  A
C1401      H1406   1.083       .  S
C1402      C1403   1.381       .  A
C1403      C1404   1.393       .  A
C1403      H1407   1.082       .  S
C1404      C1405   1.413       .  A
C1405      H1408   1.083       .  S
C1409      C1414   1.417       .  A
C1409      C1657   1.461       .  S
C1410      C1411   1.411       .  A
C1410      H1415   1.084       .  S
C1411      C1412   1.388   1_565  A
C1412      H1416   1.081       .  S
C1413      C1414   1.416       .  A
C1414      H1417   1.083       .  S
C1418      C3083   1.398       .  A
C1418      C1423   1.407       .  A
C1418      C1650   1.456       .  S
C1419      C3082   1.399   1_455  A
C1419      C1420   1.410       .  A
C1419      H1424   1.084       .  S
C1420      C3085   1.393   1_455  A
C1421      C3084   1.392       .  A
C1421      C1422   1.398       .  A
C1421      H1425   1.085       .  S
C1422      C1423   1.417       .  A
C1423      H1426   1.084       .  S
C1427      C1428   1.410       .  A
C1427      C3096   1.423       .  A
C1427      C1656   1.470       .  S
C1428      C1429   1.406       .  A
C1428      H1433   1.084       .  S
C1429      C1430   1.387       .  A
C1430      C3095   1.389       .  A
C1431      C3094   1.388   1_455  A
C1431      C1432   1.421       .  A
C1432      C3091   1.423       .  A
C1432      H1435   1.083       .  S
C1436      C1437   1.414       .  A
C1436      C1648   1.452       .  S
C1437      C1438   1.413       .  A
C1437      H1442   1.083       .  S
C1438      C1439   1.389   1_565  A
C1439      H1443   1.082       .  S
C1440      C1441   1.402       .  A
C1441      H1444   1.084       .  S
Zr1445     O1446   2.439       .  S
Zr1445     O1447   2.461       .  S
Zr1445     O1448   2.532       .  S
Zr1445     O1451   2.463       .  S
Zr1445     O1453   2.380       .  S
Zr1445     O1454   2.400       .  S
Zr1445     O1455   2.394       .  S
Zr1445     O1456   2.431       .  S
O1446      H1502   0.990       .  S
O1446      H1510   0.990       .  S
O1447      C1467   1.291       .  A
O1448      C1469   1.305       .  A
O1449     Zr1459   2.417       .  S
O1449      C1468   1.285       .  A
O1450     Zr1458   2.342       .  S
O1450      C1469   1.266       .  A
O1451      C1468   1.287       .  A
O1452     Zr1460   2.391       .  S
O1452      C1467   1.273       .  A
O1453     Zr1458   2.387       .  S
O1453     Zr1460   2.397       .  S
O1454     Zr1459   2.372       .  S
O1454     Zr1460   2.364       .  S
O1454      H1489   0.966       .  S
O1455     Zr1458   2.402       .  S
O1455     Zr1475   2.370       .  S
O1455      H1492   0.965       .  S
O1456     Zr1459   2.389       .  S
O1456     Zr1475   2.393       .  S
Zr1457     O1482   2.439       .  S
Zr1457     O1476   2.439       .  S
Zr1457     O1484   2.448       .  S
Zr1457     O1472   2.507       .  S
Zr1457     O1463   2.414       .  S
Zr1457     O1464   2.389       .  S
Zr1457     O1465   2.372       .  S
Zr1457     O1466   2.402       .  S
Zr1458     O1477   2.440       .  S
Zr1458     O1470   2.436       .  S
Zr1458     O1471   2.357       .  S
Zr1458     O1464   2.393       .  S
Zr1458     O1465   2.385       .  S
Zr1459     O1461   2.435       .  S
Zr1459     O1483   2.435       .  S
Zr1459     O1485   2.433       .  S
Zr1459     O1463   2.386       .  S
Zr1459     O1466   2.364       .  S
Zr1460     O1486   2.437       .  S
Zr1460     O1487   2.435       .  S
Zr1460     O1462   2.438       .  S
Zr1460     O1463   2.379       .  S
Zr1460     O1464   2.374       .  S
O1461      H1498   0.990       .  S
O1462      H1493   0.990       .  S
O1462      H1507   0.990       .  S
O1464      H1490   0.965       .  S
O1465     Zr1475   2.392       .  S
O1466     Zr1475   2.369       .  S
O1466      H1491   0.965       .  S
C1467      C1590   1.457       .  S
C1468      C1615   1.502       .  S
C1469      C1624   1.471       .  S
O1470      H1506   0.990       .  S
O1471      C1473   1.268       .  A
O1472      C1473   1.301       .  A
C1473      C1597   1.473       .  S
O1474     Zr1475   2.437       .  S
O1474      H1503   0.990       .  S
Zr1475     O1478   2.438       .  S
Zr1475     O1479   2.440       .  S
Zr1475     O1480   2.391       .  S
O1476      C1481   1.287       .  A
O1477      H1494   0.991       .  S
O1477      H1509   0.990       .  S
O1478      H1495   0.990       .  S
O1479      H1499   0.991       .  S
O1479      H1508   0.989       .  S
O1480      C1481   1.273       .  A
C1481      C1608   1.449       .  S
O1482      H1501   0.990       .  S
O1482      H1505   0.990       .  S
O1483      H1497   0.990       .  S
O1483      H1504   0.990       .  S
O1484      C1488   1.284       .  A
O1485      C1488   1.289       .  A
O1486      H1496   0.990       .  S
O1487      H1500   0.990       .  S
C1488      C1513   1.496       .  S
C1511      C1512   1.421       .  A
C1511      C1516   1.419       .  A
C1511      C1659   1.460       .  S
C1512      C1513   1.412       .  A
C1512      H1517   1.083       .  S
C1513      C1514   1.393       .  A
C1514      C1515   1.397       .  A
C1514      H1518   1.082       .  S
C1515      C1548   1.495       .  S
C1515      C1516   1.410       .  A
C1516      H1519   1.083       .  S
Zr1520     O1521   2.441       .  S
Zr1520     O1522   2.429       .  S
Zr1520     O1523   2.466       .  S
Zr1520     O1526   2.488       .  S
Zr1520     O1528   2.388       .  S
Zr1520     O1529   2.381       .  S
Zr1520     O1530   2.415       .  S
Zr1520     O1531   2.380       .  S
O1521      H1577   0.991       .  S
O1521      H1585   0.990       .  S
O1522      C1542   1.284       .  A
O1523      C1544   1.286       .  A
O1524     Zr1534   2.370       .  S
O1524      C1543   1.271       .  A
O1525     Zr1533   2.425       .  S
O1525      C1544   1.288       .  A
O1526      C1543   1.298       .  A
O1527     Zr1535   2.390       .  S
O1527      C1542   1.273       .  A
O1528     Zr1533   2.373       .  S
O1528     Zr1535   2.372       .  S
O1529     Zr1534   2.389       .  S
O1529     Zr1535   2.396       .  S
O1529      H1564   0.966       .  S
O1530     Zr1533   2.399       .  S
O1530     Zr1550   2.396       .  S
O1530      H1567   0.963       .  S
O1531     Zr1534   2.388       .  S
O1531     Zr1550   2.375       .  S
Zr1532     O1557   2.437       .  S
Zr1532     O1551   2.441       .  S
Zr1532     O1559   2.486       .  S
Zr1532     O1547   2.448       .  S
Zr1532     O1538   2.388       .  S
Zr1532     O1539   2.414       .  S
Zr1532     O1540   2.391       .  S
Zr1532     O1541   2.394       .  S
Zr1533     O1552   2.436       .  S
Zr1533     O1545   2.434       .  S
Zr1533     O1546   2.418       .  S
Zr1533     O1539   2.388       .  S
Zr1533     O1540   2.369       .  S
Zr1534     O1536   2.439       .  S
Zr1534     O1558   2.444       .  S
Zr1534     O1560   2.379       .  S
Zr1534     O1538   2.381       .  S
Zr1534     O1541   2.403       .  S
Zr1535     O1561   2.437       .  S
Zr1535     O1562   2.432       .  S
Zr1535     O1537   2.440       .  S
Zr1535     O1538   2.368       .  S
Zr1535     O1539   2.388       .  S
O1536      H1573   0.990       .  S
O1537      H1568   0.989       .  S
O1537      H1582   0.989       .  S
O1539      H1565   0.964       .  S
O1540     Zr1550   2.370       .  S
O1541     Zr1550   2.392       .  S
O1541      H1566   0.966       .  S
C1542      C1599   1.449       .  S
C1543      C1606   1.471       .  S
C1544      C1617   1.496       .  S
O1545      H1581   0.990       .  S
O1546      C1548   1.286       .  A
O1547      C1548   1.285       .  A
O1549     Zr1550   2.438       .  S
O1549      H1578   0.990       .  S
Zr1550     O1553   2.441       .  S
Zr1550     O1554   2.443       .  S
Zr1550     O1555   2.416       .  S
O1551      C1556   1.286       .  A
O1552      H1569   0.990       .  S
O1552      H1584   0.991       .  S
O1553      H1570   0.991       .  S
O1554      H1574   0.990       .  S
O1554      H1583   0.990       .  S
O1555      C1556   1.271       .  A
C1556      C1626   1.460       .  S
O1557      H1576   0.990       .  S
O1557      H1580   0.991       .  S
O1558      H1572   0.990       .  S
O1558      H1579   0.990       .  S
O1559      C1563   1.294       .  A
O1560      C1563   1.263       .  A
O1561      H1571   0.990       .  S
O1562      H1575   0.990       .  S
C1563      C1588   1.476       .  S
C1586      C1591   1.411       .  A
C1586      C1664   1.470       .  S
C1587      C1588   1.420       .  A
C1587      H1592   1.084       .  S
C1589      C1590   1.386       .  A
C1590      C1591   1.410       .  A
C1591      H1594   1.084       .  S
C1595      C1596   1.413       .  A
C1595      C3264   1.405       .  A
C1595      C1661   1.460       .  S
C1596      C1597   1.420       .  A
C1596      H1601   1.084       .  S
C1597      C1598   1.384       .  A
C1598      C3263   1.388       .  A
C1598      H1602   1.086       .  S
C1599      C3262   1.389   1_455  A
C1599      C1600   1.403       .  A
C1600      C3259   1.403   1_455  A
C1600      H1603   1.084       .  S
C1604      C3269   1.412       .  A
C1604      C1609   1.404       .  A
C1604      C1646   1.458       .  S
C1605      C3268   1.412   1_455  A
C1605      C1606   1.418       .  A
C1605      H1610   1.084       .  S
C1606      C3271   1.386   1_455  A
C1607      C3270   1.388       .  A
C1607      C1608   1.385       .  A
C1607      H1611   1.086       .  S
C1608      C1609   1.403       .  A
C1609      H1612   1.084       .  S
C1613      C1614   1.422       .  A
C1613      C1618   1.420       .  A
C1613      C1644   1.460       .  S
C1614      C1615   1.411       .  A
C1614      H1619   1.083       .  S
C1615      C1616   1.400       .  A
C1616      C1617   1.395       .  A
C1616      H1620   1.082       .  S
C1617      C1618   1.409       .  A
C1618      H1621   1.083       .  S
C1622      C1627   1.412       .  A
C1622      C1642   1.469       .  S
C1623      C1624   1.422       .  A
C1623      H1628   1.084       .  S
C1625      C1626   1.391       .  A
C1625      H1629   1.087       .  S
C1626      C1627   1.413       .  A
C1627      H1630   1.083       .  S
C1631      H1632   1.111       .  S
C1631      C2469   1.554   1_565  S
C1631      C1636   1.548       .  S
C1631      C1635   1.546       .  S
C1633      H1634   1.111       .  S
C1633      C1639   1.549       .  S
C1633      C1638   1.557       .  S
C1633      C2472   1.556   1_565  S
C1635      C1647   1.459       .  S
C1635      C1638   1.371       .  D
C1636      C1649   1.461       .  S
C1636      C1639   1.368       .  D
C1637      C2463   1.555   1_455  S
C1637      C1652   1.477       .  S
C1637      C1640   1.376       .  D
C1638      C1641   1.474       .  S
C1639      C1645   1.465       .  S
C1640      C2465   1.554   1_455  S
C1640      C1643   1.465       .  S
C1641      C1642   1.223       .  T
C1643      C1644   1.218       .  T
C1645      C1646   1.217       .  T
C1647      C1648   1.214       .  T
C1649      C1650   1.215       .  T
C1651      C1652   1.225       .  T
C1653      C1654   1.233       .  T
C1655      C1656   1.224       .  T
C1659      C1660   1.218       .  T
C1661      C3326   1.218       .  T
C1662      C3325   1.216       .  T
C1663      C1664   1.224       .  T
C1665      H1666   1.111       .  S
C1665      C1670   1.555   1_565  S
C1665      C1669   1.551       .  S
C1667      H1668   1.111       .  S
C1667      C2505   1.553       .  S
C1667      C1674   1.573       .  S
C1669      C2079   1.474       .  S
C1669      C2504   1.370       .  D
C1670      C2078   1.464       .  S
C1671      C2076   1.465       .  S
C1671      C1674   1.374       .  D
C1672      C2074   1.465       .  S
C1672      C2501   1.372       .  D
C1673      C2499   1.551   1_545  S
C1673      C2071   1.474       .  S
C1674      C2070   1.492       .  S
Zr1675     O1676   2.440       .  S
Zr1675     O1677   2.431       .  S
Zr1675     O1678   2.437       .  S
Zr1675     O1681   2.435       .  S
Zr1675     O2099   2.377   1_554  S
Zr1675     O2100   2.387   1_554  S
Zr1675     O1685   2.413       .  S
Zr1675     O1686   2.406       .  S
O1676      H1732   0.990       .  S
O1676      H1740   0.990       .  S
O1677      C2113   1.285   1_554  A
O1678      C1699   1.280       .  A
O1679     Zr1689   2.408       .  S
O1679      C1698   1.276       .  A
O1680     Zr2104   2.409       .  S
O1680      C1699   1.275   1_556  A
O1681      C1698   1.287       .  A
O1682     Zr1690   2.423       .  S
O1682      C1697   1.280       .  A
O1683     Zr2091   2.374       .  S
O1683     Zr1688   2.361       .  S
O1683     Zr1690   2.346       .  S
O1684     Zr2091   2.381       .  S
O1684     Zr2105   2.394       .  S
O1684     Zr1690   2.396       .  S
O1684      H1719   0.966       .  S
O1685     Zr2104   2.400   1_554  S
O1685     Zr1705   2.396       .  S
O1685      H1722   0.965       .  S
O1686     Zr1689   2.382       .  S
O1686     Zr1705   2.405       .  S
Zr1687     O1712   2.439       .  S
Zr1687     O1706   2.474       .  S
Zr1687     O1714   2.552       .  S
Zr1687     O1702   2.480       .  S
Zr1687     O1693   2.382       .  S
Zr1687     O1694   2.427       .  S
Zr1687     O2111   2.376       .  S
Zr1687     O2112   2.396       .  S
Zr1688     O2123   2.442       .  S
Zr1688     O1700   2.439       .  S
Zr1688     O2096   2.409       .  S
Zr1688     O1701   2.381       .  S
Zr1688     O2101   2.402       .  S
Zr1688     O1694   2.409       .  S
Zr1688     O2111   2.365       .  S
Zr1689     O1691   2.440       .  S
Zr1689     O2129   2.447   1_554  S
Zr1689     O2131   2.389   1_554  S
Zr1689     O2100   2.394   1_554  S
Zr1689     O1696   2.401       .  S
Zr1689     O2109   2.283   1_554  S
Zr1690     O1716   2.439       .  S
Zr1690     O1717   2.434       .  S
Zr1690     O1692   2.437       .  S
Zr1690     O1693   2.369       .  S
Zr1690     O1694   2.408       .  S
O1691      H1728   0.990       .  S
O1692      H1723   0.990       .  S
O1692      H1737   0.990       .  S
O1693     Zr2105   2.381       .  S
O1694      H1720   0.965       .  S
O1695     Zr2103   2.376   1_554  S
O1695     Zr2104   2.373   1_554  S
O1695     Zr1705   2.370       .  S
O1696     Zr2103   2.393   1_554  S
O1696     Zr1705   2.409       .  S
O1696      H1721   0.964       .  S
C1697      O2093   1.285       .  A
C1697      C1845   1.462       .  S
C1698      C1838   1.477       .  S
C1699      C1856   1.465       .  S
O1700      H1736   0.990       .  S
O1701      C1703   1.277       .  A
O1702      C1703   1.291       .  A
C1703      C1829   1.494       .  S
O1704     Zr1705   2.437       .  S
O1704      H1733   0.990       .  S
Zr1705     O1708   2.441       .  S
Zr1705     O1709   2.447       .  S
Zr1705     O1710   2.412       .  S
O1706      C2127   1.297       .  A
O1707     Zr2104   2.438   1_554  S
O1707      H1724   0.990       .  S
O1707      H1739   0.990       .  S
O1708      H1725   0.990       .  S
O1709      H1729   0.991       .  S
O1709      H1738   0.989       .  S
O1710      C1711   1.272       .  A
C1711      O2122   1.298   1_554  A
C1711      C1818   1.486       .  S
O1712      H1731   0.991       .  S
O1712      H1735   0.990       .  S
O1713     Zr2105   2.443       .  S
O1713      H1727   0.990       .  S
O1713      H1734   0.991       .  S
O1714      C1718   1.309       .  A
O1715     Zr2105   2.395       .  S
O1715      C1718   1.271       .  A
O1716      H1726   0.990       .  S
O1717      H1730   0.990       .  S
C1718      C1745   1.502       .  S
C1741      C1742   1.416       .  A
C1741      C1746   1.425       .  A
C1741      C2069   1.487       .  S
C1742      C1743   1.415       .  A
C1742      H1747   1.083       .  S
C1743      C1773   1.483       .  S
C1743      C1744   1.403       .  A
C1744      C1745   1.386       .  A
C1744      H1748   1.085       .  S
C1745      C1746   1.431       .  A
C1746      H1749   1.083       .  S
Zr1750     O1751   2.441       .  S
Zr1750     O1752   2.472       .  S
Zr1750     O1753   2.515       .  S
Zr1750     O1756   2.450       .  S
Zr1750     O2174   2.376       .  S
Zr1750     O2175   2.403       .  S
Zr1750     O1760   2.414       .  S
Zr1750     O1761   2.418       .  S
O1751      H1807   0.990       .  S
O1751      H1815   0.991       .  S
O1752      C2188   1.293       .  A
O1753      C1774   1.300       .  A
O1754     Zr1764   2.413       .  S
O1754      C1773   1.285       .  A
O1755     Zr2179   2.371       .  S
O1755      C1774   1.272       .  A
O1756      C1773   1.285       .  A
O1757     Zr1765   2.422       .  S
O1757      C1772   1.280       .  A
O1758     Zr2166   2.380   1_554  S
O1758     Zr1763   2.399   1_554  S
O1758     Zr1765   2.396       .  S
O1759     Zr2166   2.402   1_554  S
O1759     Zr2180   2.365       .  S
O1759     Zr1765   2.374       .  S
O1759      H1794   0.965       .  S
O1760     Zr2179   2.404       .  S
O1760     Zr1780   2.396       .  S
O1760      H1797   0.964       .  S
O1761     Zr1764   2.388       .  S
O1761     Zr1780   2.385       .  S
Zr1762     O1787   2.441       .  S
Zr1762     O1781   2.437       .  S
Zr1762     O1789   2.428       .  S
Zr1762     O1777   2.457       .  S
Zr1762     O1768   2.419       .  S
Zr1762     O1769   2.402       .  S
Zr1762     O2186   2.384   1_554  S
Zr1762     O2187   2.391   1_554  S
Zr1763     O2198   2.439       .  S
Zr1763     O1775   2.435   1_556  S
Zr1763     O2171   2.377       .  S
Zr1763     O1776   2.391   1_556  S
Zr1763     O2176   2.406       .  S
Zr1763     O1769   2.383   1_556  S
Zr1763     O2186   2.394       .  S
Zr1764     O1766   2.433       .  S
Zr1764     O2204   2.435       .  S
Zr1764     O2206   2.436       .  S
Zr1764     O2175   2.366       .  S
Zr1764     O2184   2.373       .  S
Zr1764     O1771   2.365       .  S
Zr1765     O1791   2.435       .  S
Zr1765     O1792   2.435       .  S
Zr1765     O1767   2.439       .  S
Zr1765     O1768   2.403       .  S
Zr1765     O1769   2.389       .  S
O1766      H1803   0.989       .  S
O1767      H1798   0.991       .  S
O1767      H1812   0.990       .  S
O1768     Zr2180   2.375       .  S
O1769      H1795   0.964       .  S
O1770     Zr2178   2.382       .  S
O1770     Zr2179   2.391       .  S
O1770     Zr1780   2.386       .  S
O1771     Zr2178   2.392       .  S
O1771     Zr1780   2.357       .  S
O1771      H1796   0.964       .  S
C1772      O2168   1.293       .  A
C1772      C1854   1.478       .  S
C1774      C1827   1.489       .  S
O1775      H1811   0.990       .  S
O1776      C1778   1.277       .  A
O1777      C1778   1.291       .  A
C1778      C1836   1.469       .  S
O1779     Zr1780   2.434       .  S
O1779      H1808   0.990       .  S
Zr1780     O1783   2.437       .  S
Zr1780     O1784   2.446       .  S
Zr1780     O1785   2.443       .  S
O1781      C2202   1.288   1_554  A
O1782     Zr2179   2.440       .  S
O1782      H1799   0.990       .  S
O1782      H1814   0.990       .  S
O1783      H1800   0.990       .  S
O1784      H1804   0.991       .  S
O1784      H1813   0.991       .  S
O1785      C1786   1.280       .  A
C1786      O2197   1.290       .  A
C1786      C1847   1.480       .  S
O1787      H1806   0.990       .  S
O1787      H1810   0.990       .  S
O1788     Zr2180   2.435       .  S
O1788      H1802   0.990       .  S
O1788      H1809   0.990       .  S
O1789      C1793   1.280       .  A
O1790     Zr2180   2.433       .  S
O1790      C1793   1.289       .  A
O1791      H1801   0.990       .  S
O1792      H1805   0.990       .  S
C1793      C1820   1.488       .  S
C1816      C1817   1.422       .  A
C1816      C1821   1.422       .  A
C1816      C2067   1.471       .  S
C1817      C1818   1.416       .  A
C1817      H1822   1.083       .  S
C1818      C1819   1.380       .  A
C1819      C1820   1.394       .  A
C1819      H1823   1.081       .  S
C1820      C1821   1.414       .  A
C1821      H1824   1.083       .  S
C1825      C2658   1.405   1_545  A
C1825      C1830   1.417       .  A
C1825      C2073   1.460   1_545  S
C1826      C2657   1.406       .  A
C1826      C1827   1.411       .  A
C1826      H1831   1.084       .  S
C1827      C1828   1.387       .  A
C1828      C2661   1.414       .  A
C1828      H1832   1.082       .  S
C1829      C2660   1.414       .  A
C1829      C1830   1.415       .  A
C1830      H1833   1.083       .  S
C1834      C1839   1.407       .  A
C1834      C2066   1.458       .  S
C1835      C1836   1.410       .  A
C1835      H1840   1.085       .  S
C1837      C1838   1.400       .  A
C1837      H1841   1.085       .  S
C1838      C1839   1.417       .  A
C1839      H1842   1.084       .  S
C1843      C1844   1.408   1_455  A
C1843      C2072   1.467       .  S
C1844      C1845   1.405       .  A
C1844      H1849   1.084       .  S
C1845      C1846   1.387   1_655  A
C1846      H2266   1.086   1_455  S
C1847      C1848   1.420       .  A
C1848      H1851   1.083       .  S
H1850      C2262   1.086       .  S
C1852      C1853   1.414       .  A
C1852      C2689   1.406       .  A
C1852      C2064   1.450       .  S
C1853      C1854   1.412       .  A
C1853      H1858   1.084       .  S
C1854      C1855   1.387       .  A
C1855      C2688   1.398       .  A
C1855      H1859   1.081       .  S
C1856      C2687   1.398       .  A
C1856      C1857   1.401       .  A
C1857      C2684   1.406   1_545  A
C1857      H1860   1.084       .  S
Zr1861     O1862   2.438       .  S
Zr1861     O1863   2.459       .  S
Zr1861     O1864   2.531       .  S
Zr1861     O1867   2.463       .  S
Zr1861     O1869   2.378       .  S
Zr1861     O1870   2.396       .  S
Zr1861     O1871   2.396       .  S
Zr1861     O1872   2.430       .  S
O1862      H1918   0.991       .  S
O1862      H1926   0.990       .  S
O1863      C1883   1.291       .  A
O1864      C1885   1.305       .  A
O1865     Zr1875   2.414       .  S
O1865      C1884   1.285       .  A
O1866     Zr1874   2.338       .  S
O1866      C1885   1.266       .  A
O1867      C1884   1.287       .  A
O1868     Zr1876   2.393       .  S
O1868      C1883   1.272       .  A
O1869     Zr1874   2.388       .  S
O1869     Zr1876   2.394       .  S
O1870     Zr1875   2.370       .  S
O1870     Zr1876   2.364       .  S
O1870      H1905   0.965       .  S
O1871     Zr1874   2.399       .  S
O1871     Zr1891   2.369       .  S
O1871      H1908   0.963       .  S
O1872     Zr1875   2.389       .  S
O1872     Zr1891   2.392       .  S
Zr1873     O1898   2.440       .  S
Zr1873     O1892   2.439       .  S
Zr1873     O1900   2.450       .  S
Zr1873     O1888   2.505       .  S
Zr1873     O1879   2.414       .  S
Zr1873     O1880   2.394       .  S
Zr1873     O1881   2.371       .  S
Zr1873     O1882   2.399       .  S
Zr1874     O1893   2.438       .  S
Zr1874     O1886   2.436       .  S
Zr1874     O1887   2.360       .  S
Zr1874     O1880   2.390       .  S
Zr1874     O1881   2.382       .  S
Zr1875     O1877   2.435       .  S
Zr1875     O1899   2.434       .  S
Zr1875     O1901   2.425       .  S
Zr1875     O1879   2.389       .  S
Zr1875     O1882   2.359       .  S
Zr1876     O1902   2.436       .  S
Zr1876     O1903   2.433       .  S
Zr1876     O1878   2.440       .  S
Zr1876     O1879   2.383       .  S
Zr1876     O1880   2.377       .  S
O1877      H1914   0.990       .  S
O1878      H1909   0.990       .  S
O1878      H1923   0.990       .  S
O1880      H1906   0.964       .  S
O1881     Zr1891   2.396       .  S
O1882     Zr1891   2.371       .  S
O1882      H1907   0.965       .  S
C1883      C2006   1.456       .  S
C1884      C2031   1.501       .  S
C1885      C2040   1.469       .  S
O1886      H1922   0.990       .  S
O1887      C1889   1.269       .  A
O1888      C1889   1.300       .  A
C1889      C2013   1.472       .  S
O1890     Zr1891   2.438       .  S
O1890      H1919   0.990       .  S
Zr1891     O1894   2.438       .  S
Zr1891     O1895   2.439       .  S
Zr1891     O1896   2.391       .  S
O1892      C1897   1.287       .  A
O1893      H1910   0.990       .  S
O1893      H1925   0.990       .  S
O1894      H1911   0.990       .  S
O1895      H1915   0.991       .  S
O1895      H1924   0.989       .  S
O1896      C1897   1.273       .  A
C1897      C2024   1.448       .  S
O1898      H1917   0.990       .  S
O1898      H1921   0.991       .  S
O1899      H1913   0.990       .  S
O1899      H1920   0.990       .  S
O1900      C1904   1.284       .  A
O1901      C1904   1.288       .  A
O1902      H1912   0.990       .  S
O1903      H1916   0.990       .  S
C1904      C1929   1.494       .  S
C1927      C1928   1.421       .  A
C1927      C1932   1.419       .  A
C1927      C2075   1.458       .  S
C1928      C1929   1.411       .  A
C1928      H1933   1.083       .  S
C1929      C1930   1.394       .  A
C1930      C1931   1.396       .  A
C1930      H1934   1.082       .  S
C1931      C1964   1.494       .  S
C1931      C1932   1.409       .  A
C1932      H1935   1.083       .  S
Zr1936     O1937   2.441       .  S
Zr1936     O1938   2.428       .  S
Zr1936     O1939   2.464       .  S
Zr1936     O1942   2.481       .  S
Zr1936     O1944   2.387       .  S
Zr1936     O1945   2.381       .  S
Zr1936     O1946   2.413       .  S
Zr1936     O1947   2.381       .  S
O1937      H1993   0.990       .  S
O1937      H2001   0.990       .  S
O1938      C1958   1.285       .  A
O1939      C1960   1.286       .  A
O1940     Zr1950   2.371       .  S
O1940      C1959   1.271       .  A
O1941     Zr1949   2.423       .  S
O1941      C1960   1.287       .  A
O1942      C1959   1.297       .  A
O1943     Zr1951   2.389       .  S
O1943      C1958   1.273       .  A
O1944     Zr1949   2.371       .  S
O1944     Zr1951   2.370       .  S
O1945     Zr1950   2.389       .  S
O1945     Zr1951   2.397       .  S
O1945      H1980   0.966       .  S
O1946     Zr1949   2.397       .  S
O1946     Zr1966   2.394       .  S
O1946      H1983   0.963       .  S
O1947     Zr1950   2.389       .  S
O1947     Zr1966   2.376       .  S
Zr1948     O1973   2.438       .  S
Zr1948     O1967   2.429       .  S
Zr1948     O1975   2.489       .  S
Zr1948     O1963   2.448       .  S
Zr1948     O1954   2.383       .  S
Zr1948     O1955   2.414       .  S
Zr1948     O1956   2.393       .  S
Zr1948     O1957   2.396       .  S
Zr1949     O1968   2.436       .  S
Zr1949     O1961   2.433       .  S
Zr1949     O1962   2.418       .  S
Zr1949     O1955   2.390       .  S
Zr1949     O1956   2.367       .  S
Zr1950     O1952   2.440       .  S
Zr1950     O1974   2.443       .  S
Zr1950     O1976   2.378       .  S
Zr1950     O1954   2.381       .  S
Zr1950     O1957   2.403       .  S
Zr1951     O1977   2.437       .  S
Zr1951     O1978   2.433       .  S
Zr1951     O1953   2.438       .  S
Zr1951     O1954   2.368       .  S
Zr1951     O1955   2.388       .  S
O1952      H1989   0.990       .  S
O1953      H1984   0.989       .  S
O1953      H1998   0.989       .  S
O1955      H1981   0.965       .  S
O1956     Zr1966   2.368       .  S
O1957     Zr1966   2.393       .  S
O1957      H1982   0.966       .  S
C1958      C2015   1.449       .  S
C1959      C2022   1.471       .  S
C1960      C2033   1.496       .  S
O1961      H1997   0.990       .  S
O1962      C1964   1.286       .  A
O1963      C1964   1.285       .  A
O1965     Zr1966   2.438       .  S
O1965      H1994   0.990       .  S
Zr1966     O1969   2.442       .  S
Zr1966     O1970   2.443       .  S
Zr1966     O1971   2.417       .  S
O1967      C1972   1.284       .  A
O1968      H1985   0.990       .  S
O1968      H2000   0.990       .  S
O1969      H1986   0.991       .  S
O1970      H1990   0.990       .  S
O1970      H1999   0.990       .  S
O1971      C1972   1.271       .  A
C1972      C2042   1.456       .  S
O1973      H1992   0.990       .  S
O1973      H1996   0.990       .  S
O1974      H1988   0.990       .  S
O1974      H1995   0.990       .  S
O1975      C1979   1.295       .  A
O1976      C1979   1.263       .  A
O1977      H1987   0.990       .  S
O1978      H1991   0.990       .  S
C1979      C2004   1.478       .  S
C2002      C2835   1.415       .  A
C2002      C2007   1.409   1_565  A
C2002      C2080   1.468       .  S
C2003      C2834   1.415       .  A
C2003      C2004   1.422       .  A
C2003      H2008   1.083       .  S
C2004      C2837   1.386       .  A
C2005      C2836   1.386       .  A
C2005      C2006   1.386   1_565  A
C2005      H2841   1.086       .  S
C2006      C2007   1.409       .  A
C2007      H2010   1.084       .  S
H2009      C2837   1.086       .  S
C2011      C2012   1.413       .  A
C2011      C2077   1.457       .  S
C2012      C2013   1.420       .  A
C2012      H2017   1.084       .  S
C2013      C2014   1.383       .  A
C2014      H2018   1.086       .  S
C2015      C2016   1.403       .  A
C2016      H2019   1.084       .  S
C2020      C2025   1.404       .  A
C2020      C2062   1.455       .  S
C2021      C2022   1.418       .  A
C2021      H2026   1.084       .  S
C2023      C2024   1.386       .  A
C2023      H2027   1.086       .  S
C2024      C2025   1.403       .  A
C2025      H2028   1.084       .  S
C2029      C2030   1.422       .  A
C2029      C2034   1.421       .  A
C2029      C2060   1.461       .  S
C2030      C2031   1.412       .  A
C2030      H2035   1.083       .  S
C2031      C2032   1.399       .  A
C2032      C2033   1.395       .  A
C2032      H2036   1.081       .  S
C2033      C2034   1.409       .  A
C2034      H2037   1.083       .  S
C2038      C2871   1.411       .  A
C2038      C2043   1.410       .  A
C2038      C2058   1.468       .  S
C2039      C2870   1.412   1_545  A
C2039      C2040   1.423       .  A
C2039      H2044   1.084       .  S
C2040      C2873   1.381   1_545  A
C2041      C2872   1.380       .  A
C2041      C2042   1.391       .  A
C2041      H2045   1.087       .  S
C2042      C2043   1.411       .  A
C2043      H2046   1.084       .  S
C2047      H2048   1.111       .  S
C2047      C2052   1.550       .  S
C2047      C2051   1.546       .  S
C2049      H2050   1.111       .  S
C2049      C2055   1.546       .  S
C2049      C2054   1.555       .  S
C2051      C2063   1.456       .  S
C2051      C2054   1.371       .  D
C2052      C2065   1.463       .  S
C2052      C2055   1.369       .  D
C2053      C2068   1.477       .  S
C2053      C2056   1.376       .  D
C2054      C2057   1.473       .  S
C2055      C2061   1.461       .  S
C2056      C2059   1.467       .  S
C2057      C2058   1.223       .  T
C2059      C2060   1.219       .  T
C2061      C2062   1.215       .  T
C2063      C2064   1.212       .  T
C2065      C2066   1.217       .  T
C2067      C2068   1.225       .  T
C2069      C2070   1.234       .  T
C2071      C2072   1.223   1_655  T
C2073      C2906   1.218       .  T
C2074      C2905   1.218       .  T
C2075      C2076   1.217       .  T
C2079      C2080   1.223       .  T
C2081      H2082   1.111       .  S
C2081      C2086   1.554   1_565  S
C2081      C2085   1.551       .  S
C2083      H2084   1.111       .  S
C2083      C2921   1.551       .  S
C2083      C2090   1.573       .  S
C2085      C2495   1.478       .  S
C2085      C2920   1.371       .  D
C2086      C2494   1.463       .  S
C2087      C2492   1.466       .  S
C2087      C2090   1.373       .  D
C2088      C2490   1.467       .  S
C2088      C2917   1.371       .  D
C2089      C2915   1.551   1_545  S
C2089      C2487   1.474       .  S
C2090      C2486   1.490       .  S
Zr2091     O2092   2.439       .  S
Zr2091     O2093   2.427       .  S
Zr2091     O2094   2.437       .  S
Zr2091     O2097   2.440       .  S
Zr2091     O2101   2.412       .  S
Zr2091     O2102   2.399       .  S
O2092      H2148   0.990       .  S
O2092      H2156   0.990       .  S
O2094      C2115   1.280       .  A
O2095     Zr2105   2.405       .  S
O2095      C2114   1.276       .  A
O2096      C2115   1.275       .  A
O2097      C2114   1.288       .  A
O2098     Zr2106   2.434       .  S
O2098      C2113   1.282       .  A
O2099     Zr2104   2.359       .  S
O2099     Zr2106   2.347       .  S
O2100     Zr2106   2.395       .  S
O2100      H2135   0.966       .  S
O2101     Zr2121   2.395       .  S
O2101      H2138   0.965       .  S
O2102     Zr2105   2.385       .  S
O2102     Zr2121   2.399       .  S
Zr2103     O2128   2.443       .  S
Zr2103     O2122   2.478       .  S
Zr2103     O2130   2.542       .  S
Zr2103     O2118   2.487       .  S
Zr2103     O2110   2.420       .  S
Zr2103     O2109   2.292       .  S
Zr2104     O2116   2.438       .  S
Zr2104     O2117   2.373       .  S
Zr2104     O2110   2.407       .  S
Zr2105     O2107   2.438       .  S
Zr2105     O2112   2.405       .  S
Zr2106     O2132   2.440       .  S
Zr2106     O2133   2.434       .  S
Zr2106     O2108   2.443       .  S
Zr2106     O2110   2.401       .  S
Zr2106     O2109   2.292       .  S
O2107      H2144   0.990       .  S
O2108      H2139   0.991       .  S
O2108      H2153   0.990       .  S
O2110      H2136   0.965       .  S
O2111     Zr2121   2.365       .  S
O2112     Zr2121   2.404       .  S
O2112      H2137   0.964       .  S
C2113      C2261   1.465       .  S
C2114      C2254   1.476       .  S
C2115      C2272   1.466       .  S
O2116      H2152   0.989       .  S
O2117      C2119   1.275       .  A
O2118      C2119   1.292       .  A
C2119      C2245   1.497       .  S
O2120     Zr2121   2.435       .  S
O2120      H2149   0.990       .  S
Zr2121     O2124   2.439       .  S
Zr2121     O2125   2.445       .  S
Zr2121     O2126   2.412       .  S
O2123      H2140   0.990       .  S
O2123      H2155   0.989       .  S
O2124      H2141   0.990       .  S
O2125      H2145   0.991       .  S
O2125      H2154   0.989       .  S
O2126      C2127   1.273       .  A
C2127      C2234   1.483       .  S
O2128      H2147   0.991       .  S
O2128      H2151   0.990       .  S
O2129      H2143   0.991   1_556  S
O2129      H2150   0.991       .  S
O2130      C2134   1.307       .  A
O2131      C2134   1.270       .  A
O2132      H2142   0.991       .  S
O2133      H2146   0.990       .  S
C2134      C2161   1.500       .  S
C2157      C2158   1.416       .  A
C2157      C2162   1.423       .  A
C2157      C2485   1.485       .  S
C2158      C2159   1.415       .  A
C2158      H2163   1.083       .  S
C2159      C2189   1.485       .  S
C2159      C2160   1.403       .  A
C2160      C2161   1.386       .  A
C2160      H2164   1.085       .  S
C2161      C2162   1.429       .  A
C2162      H2165   1.083       .  S
Zr2166     O2167   2.441       .  S
Zr2166     O2168   2.474   1_556  S
Zr2166     O2169   2.515       .  S
Zr2166     O2172   2.453       .  S
Zr2166     O2176   2.415       .  S
Zr2166     O2177   2.418       .  S
O2167      H2223   0.990       .  S
O2167      H2231   0.990       .  S
O2169      C2190   1.300       .  A
O2170     Zr2180   2.414   1_556  S
O2170      C2189   1.285       .  A
O2171      C2190   1.273       .  A
O2172      C2189   1.285       .  A
O2173     Zr2181   2.427       .  S
O2173      C2188   1.280       .  A
O2174     Zr2179   2.400       .  S
O2174     Zr2181   2.395       .  S
O2175     Zr2181   2.369       .  S
O2175      H2210   0.965       .  S
O2176     Zr2196   2.398       .  S
O2176      H2213   0.963       .  S
O2177     Zr2180   2.390   1_556  S
O2177     Zr2196   2.388       .  S
Zr2178     O2203   2.441       .  S
Zr2178     O2197   2.443       .  S
Zr2178     O2205   2.426       .  S
Zr2178     O2193   2.457       .  S
Zr2178     O2184   2.420       .  S
Zr2178     O2185   2.402       .  S
Zr2179     O2191   2.435       .  S
Zr2179     O2192   2.384       .  S
Zr2179     O2185   2.385       .  S
Zr2180     O2182   2.434   1_554  S
Zr2180     O2187   2.367   1_554  S
Zr2181     O2207   2.436       .  S
Zr2181     O2208   2.433       .  S
Zr2181     O2183   2.440       .  S
Zr2181     O2184   2.405       .  S
Zr2181     O2185   2.393       .  S
O2182      H2219   0.989       .  S
O2183      H2214   0.991       .  S
O2183      H2228   0.990       .  S
O2185      H2211   0.964       .  S
O2186     Zr2196   2.385       .  S
O2187     Zr2196   2.356       .  S
O2187      H2212   0.964       .  S
C2188      C2270   1.480       .  S
C2190      C2243   1.490       .  S
O2191      H2227   0.990       .  S
O2192      C2194   1.275       .  A
O2193      C2194   1.291       .  A
C2194      C2252   1.466       .  S
O2195     Zr2196   2.436       .  S
O2195      H2224   0.990       .  S
Zr2196     O2199   2.438       .  S
Zr2196     O2200   2.445       .  S
Zr2196     O2201   2.444       .  S
O2198      H2215   0.990       .  S
O2198      H2230   0.990       .  S
O2199      H2216   0.990       .  S
O2200      H2220   0.991       .  S
O2200      H2229   0.991       .  S
O2201      C2202   1.280       .  A
C2202      C2263   1.480       .  S
O2203      H2222   0.990       .  S
O2203      H2226   0.990       .  S
O2204      H2218   0.990       .  S
O2204      H2225   0.990       .  S
O2205      C2209   1.279       .  A
O2206      C2209   1.290       .  A
O2207      H2217   0.990       .  S
O2208      H2221   0.990       .  S
C2209      C2236   1.488       .  S
C2232      C2233   1.422       .  A
C2232      C2237   1.421       .  A
C2232      C2483   1.470       .  S
C2233      C2234   1.416       .  A
C2233      H2238   1.083       .  S
C2234      C2235   1.379       .  A
C2235      C2236   1.393       .  A
C2235      H2239   1.082       .  S
C2236      C2237   1.414       .  A
C2237      H2240   1.083       .  S
C2241      C3074   1.406   1_545  A
C2241      C2246   1.417       .  A
C2241      C2489   1.462       .  S
C2242      C3073   1.406       .  A
C2242      C2243   1.411       .  A
C2242      H2247   1.084       .  S
C2243      C2244   1.388       .  A
C2244      C3077   1.414       .  A
C2244      H2248   1.082       .  S
C2245      C3076   1.417       .  A
C2245      C2246   1.415       .  A
C2246      H2249   1.083       .  S
C2250      C2255   1.409       .  A
C2250      C2482   1.458       .  S
C2251      C2252   1.409       .  A
C2251      H2256   1.085       .  S
C2253      C2254   1.399       .  A
C2253      H2257   1.085       .  S
C2254      C2255   1.418       .  A
C2255      H2258   1.084       .  S
C2259      C2260   1.410   1_455  A
C2259      C2488   1.468       .  S
C2260      C2261   1.407       .  A
C2260      H2265   1.084       .  S
C2261      C2262   1.386   1_655  A
C2263      C2264   1.421       .  A
C2264      H2267   1.083       .  S
C2268      C2269   1.415       .  A
C2268      C3105   1.407       .  A
C2268      C2480   1.453       .  S
C2269      C2270   1.413       .  A
C2269      H2274   1.084       .  S
C2270      C2271   1.387       .  A
C2271      C3104   1.398       .  A
C2271      H2275   1.081       .  S
C2272      C3103   1.398       .  A
C2272      C2273   1.401       .  A
C2273      C3100   1.406   1_545  A
C2273      H2276   1.084       .  S
Zr2277     O2278   2.437       .  S
Zr2277     O2279   2.463       .  S
Zr2277     O2280   2.538       .  S
Zr2277     O2283   2.472       .  S
Zr2277     O2285   2.377       .  S
Zr2277     O2286   2.396       .  S
Zr2277     O2287   2.394       .  S
Zr2277     O2288   2.431       .  S
O2278      H2334   0.990       .  S
O2278      H2342   0.990       .  S
O2279      C2299   1.292       .  A
O2280      C2301   1.307       .  A
O2281     Zr2291   2.415       .  S
O2281      C2300   1.285       .  A
O2282     Zr2290   2.332       .  S
O2282      C2301   1.265       .  A
O2283      C2300   1.289       .  A
O2284     Zr2292   2.395       .  S
O2284      C2299   1.273       .  A
O2285     Zr2290   2.388       .  S
O2285     Zr2292   2.391       .  S
O2286     Zr2291   2.372       .  S
O2286     Zr2292   2.365       .  S
O2286      H2321   0.965       .  S
O2287     Zr2290   2.400       .  S
O2287     Zr2307   2.371       .  S
O2287      H2324   0.964       .  S
O2288     Zr2291   2.389       .  S
O2288     Zr2307   2.396       .  S
Zr2289     O2314   2.439       .  S
Zr2289     O2308   2.443       .  S
Zr2289     O2316   2.442       .  S
Zr2289     O2304   2.512       .  S
Zr2289     O2295   2.416       .  S
Zr2289     O2296   2.389       .  S
Zr2289     O2297   2.366       .  S
Zr2289     O2298   2.401       .  S
Zr2290     O2309   2.439       .  S
Zr2290     O2302   2.436       .  S
Zr2290     O2303   2.357       .  S
Zr2290     O2296   2.392       .  S
Zr2290     O2297   2.380       .  S
Zr2291     O2293   2.434       .  S
Zr2291     O2315   2.435       .  S
Zr2291     O2317   2.426       .  S
Zr2291     O2295   2.392       .  S
Zr2291     O2298   2.363       .  S
Zr2292     O2318   2.434       .  S
Zr2292     O2319   2.437       .  S
Zr2292     O2294   2.442       .  S
Zr2292     O2295   2.383       .  S
Zr2292     O2296   2.380       .  S
O2293      H2330   0.990       .  S
O2294      H2325   0.990       .  S
O2294      H2339   0.990       .  S
O2296      H2322   0.964       .  S
O2297     Zr2307   2.394       .  S
O2298     Zr2307   2.369       .  S
O2298      H2323   0.965       .  S
C2299      C2422   1.459       .  S
C2300      C2447   1.504       .  S
C2301      C2456   1.470       .  S
O2302      H2338   0.990       .  S
O2303      C2305   1.268       .  A
O2304      C2305   1.302       .  A
C2305      C2429   1.474       .  S
O2306     Zr2307   2.438       .  S
O2306      H2335   0.990       .  S
Zr2307     O2310   2.438       .  S
Zr2307     O2311   2.439       .  S
Zr2307     O2312   2.393       .  S
O2308      C2313   1.287       .  A
O2309      H2326   0.990       .  S
O2309      H2341   0.990       .  S
O2310      H2327   0.990       .  S
O2311      H2331   0.990       .  S
O2311      H2340   0.989       .  S
O2312      C2313   1.274       .  A
C2313      C2440   1.450       .  S
O2314      H2333   0.990       .  S
O2314      H2337   0.990       .  S
O2315      H2329   0.990       .  S
O2315      H2336   0.989       .  S
O2316      C2320   1.283       .  A
O2317      C2320   1.288       .  A
O2318      H2328   0.990       .  S
O2319      H2332   0.989       .  S
C2320      C2345   1.491       .  S
C2343      C2344   1.419       .  A
C2343      C2348   1.419       .  A
C2343      C2491   1.458       .  S
C2344      C2345   1.410       .  A
C2344      H2349   1.083       .  S
C2345      C2346   1.393       .  A
C2346      C2347   1.396       .  A
C2346      H2350   1.082       .  S
C2347      C2380   1.495       .  S
C2347      C2348   1.410       .  A
C2348      H2351   1.083       .  S
Zr2352     O2353   2.441       .  S
Zr2352     O2354   2.431       .  S
Zr2352     O2355   2.463       .  S
Zr2352     O2358   2.474       .  S
Zr2352     O2360   2.384       .  S
Zr2352     O2361   2.384       .  S
Zr2352     O2362   2.412       .  S
Zr2352     O2363   2.386       .  S
O2353      H2409   0.991       .  S
O2353      H2417   0.990       .  S
O2354      C2374   1.285       .  A
O2355      C2376   1.286       .  A
O2356     Zr2366   2.381       .  S
O2356      C2375   1.273       .  A
O2357     Zr2365   2.421       .  S
O2357      C2376   1.287       .  A
O2358      C2375   1.295       .  A
O2359     Zr2367   2.388       .  S
O2359      C2374   1.273       .  A
O2360     Zr2365   2.370       .  S
O2360     Zr2367   2.369       .  S
O2361     Zr2366   2.394       .  S
O2361     Zr2367   2.401       .  S
O2361      H2396   0.966       .  S
O2362     Zr2365   2.396       .  S
O2362     Zr2382   2.396       .  S
O2362      H2399   0.963       .  S
O2363     Zr2366   2.386       .  S
O2363     Zr2382   2.377       .  S
Zr2364     O2389   2.438       .  S
Zr2364     O2383   2.435       .  S
Zr2364     O2391   2.492       .  S
Zr2364     O2379   2.450       .  S
Zr2364     O2370   2.387       .  S
Zr2364     O2371   2.415       .  S
Zr2364     O2372   2.393       .  S
Zr2364     O2373   2.397       .  S
Zr2365     O2384   2.437       .  S
Zr2365     O2377   2.434       .  S
Zr2365     O2378   2.420       .  S
Zr2365     O2371   2.390       .  S
Zr2365     O2372   2.369       .  S
Zr2366     O2368   2.441       .  S
Zr2366     O2390   2.443       .  S
Zr2366     O2392   2.379       .  S
Zr2366     O2370   2.386       .  S
Zr2366     O2373   2.403       .  S
Zr2367     O2393   2.436       .  S
Zr2367     O2394   2.433       .  S
Zr2367     O2369   2.440       .  S
Zr2367     O2370   2.367       .  S
Zr2367     O2371   2.387       .  S
O2368      H2405   0.990       .  S
O2369      H2400   0.990       .  S
O2369      H2414   0.989       .  S
O2371      H2397   0.965       .  S
O2372     Zr2382   2.371       .  S
O2373     Zr2382   2.391       .  S
O2373      H2398   0.966       .  S
C2374      C2431   1.450       .  S
C2375      C2438   1.471       .  S
C2376      C2449   1.495       .  S
O2377      H2413   0.990       .  S
O2378      C2380   1.287       .  A
O2379      C2380   1.285       .  A
O2381     Zr2382   2.439       .  S
O2381      H2410   0.990       .  S
Zr2382     O2385   2.441       .  S
Zr2382     O2386   2.443       .  S
Zr2382     O2387   2.415       .  S
O2383      C2388   1.284       .  A
O2384      H2401   0.990       .  S
O2384      H2416   0.990       .  S
O2385      H2402   0.991       .  S
O2386      H2406   0.990       .  S
O2386      H2415   0.990       .  S
O2387      C2388   1.270       .  A
C2388      C2458   1.459       .  S
O2389      H2408   0.990       .  S
O2389      H2412   0.990       .  S
O2390      H2404   0.990       .  S
O2390      H2411   0.990       .  S
O2391      C2395   1.296       .  A
O2392      C2395   1.264       .  A
O2393      H2403   0.990       .  S
O2394      H2407   0.990       .  S
C2395      C2420   1.478       .  S
C2418      C3251   1.416       .  A
C2418      C2423   1.411   1_565  A
C2418      C2496   1.471       .  S
C2419      C3250   1.416       .  A
C2419      C2420   1.421       .  A
C2419      H2424   1.083       .  S
C2420      C3253   1.387       .  A
C2421      C3252   1.387       .  A
C2421      C2422   1.386   1_565  A
C2421      H3257   1.086       .  S
C2422      C2423   1.411       .  A
C2423      H2426   1.084       .  S
H2425      C3253   1.086       .  S
C2427      C2428   1.414       .  A
C2427      C2493   1.459       .  S
C2428      C2429   1.421       .  A
C2428      H2433   1.084       .  S
C2429      C2430   1.384       .  A
C2430      H2434   1.086       .  S
C2431      C2432   1.404       .  A
C2432      H2435   1.084       .  S
C2436      C2441   1.403       .  A
C2436      C2478   1.454       .  S
C2437      C2438   1.417       .  A
C2437      H2442   1.084       .  S
C2439      C2440   1.386       .  A
C2439      H2443   1.086       .  S
C2440      C2441   1.403       .  A
C2441      H2444   1.084       .  S
C2445      C2446   1.422       .  A
C2445      C2450   1.420       .  A
C2445      C2476   1.461       .  S
C2446      C2447   1.412       .  A
C2446      H2451   1.083       .  S
C2447      C2448   1.401       .  A
C2448      C2449   1.396       .  A
C2448      H2452   1.082       .  S
C2449      C2450   1.409       .  A
C2450      H2453   1.084       .  S
C2454      C3287   1.409       .  A
C2454      C2459   1.410       .  A
C2454      C2474   1.466       .  S
C2455      C3286   1.412   1_545  A
C2455      C2456   1.423       .  A
C2455      H2460   1.084       .  S
C2456      C3289   1.381   1_545  A
C2457      C3288   1.382       .  A
C2457      C2458   1.392       .  A
C2457      H2461   1.086       .  S
C2458      C2459   1.411       .  A
C2459      H2462   1.084       .  S
C2463      H2464   1.111       .  S
C2463      C2468   1.549       .  S
C2463      C2467   1.547       .  S
C2465      H2466   1.111       .  S
C2465      C2471   1.546       .  S
C2465      C2470   1.555       .  S
C2467      C2479   1.459       .  S
C2467      C2470   1.371       .  D
C2468      C2481   1.464       .  S
C2468      C2471   1.369       .  D
C2469      C2484   1.476       .  S
C2469      C2472   1.376       .  D
C2470      C2473   1.471       .  S
C2471      C2477   1.460       .  S
C2472      C2475   1.466       .  S
C2473      C2474   1.222       .  T
C2475      C2476   1.219       .  T
C2477      C2478   1.215       .  T
C2479      C2480   1.214       .  T
C2481      C2482   1.217       .  T
C2483      C2484   1.224       .  T
C2485      C2486   1.233       .  T
C2487      C2488   1.223   1_655  T
C2489      C3322   1.219   1_545  T
C2490      C3321   1.219       .  T
C2491      C2492   1.217       .  T
C2495      C2496   1.225       .  T
C2497      H2498   1.111       .  S
C2497      C2502   1.555       .  S
C2497      C2501   1.551       .  S
C2499      H2500   1.111       .  S
C2499      C2506   1.573       .  S
C2501      C2911   1.478       .  S
C2502      C2910   1.462       .  S
C2503      C2908   1.466       .  S
C2503      C2506   1.374       .  D
C2504      C2906   1.466       .  S
C2505      C2903   1.473       .  S
C2506      C2902   1.491       .  S
Zr2507     O2508   2.440       .  S
Zr2507     O2509   2.431       .  S
Zr2507     O2510   2.438       .  S
Zr2507     O2513   2.437       .  S
Zr2507     O2931   2.372   1_554  S
Zr2507     O2932   2.383   1_554  S
Zr2507     O2517   2.415       .  S
Zr2507     O2518   2.403       .  S
O2508      H2564   0.991       .  S
O2508      H2572   0.990       .  S
O2509      C2945   1.285   1_554  A
O2510      C2531   1.280       .  A
O2511     Zr2521   2.405       .  S
O2511      C2530   1.275       .  A
O2512     Zr2936   2.411   1_554  S
O2512      C2531   1.275       .  A
O2513      C2530   1.287       .  A
O2514     Zr2522   2.417       .  S
O2514      C2529   1.279       .  A
O2515     Zr2923   2.371       .  S
O2515     Zr2520   2.358       .  S
O2515     Zr2522   2.346       .  S
O2516     Zr2923   2.382       .  S
O2516     Zr2937   2.394       .  S
O2516     Zr2522   2.397       .  S
O2516      H2551   0.966       .  S
O2517     Zr2936   2.403   1_554  S
O2517     Zr2537   2.400       .  S
O2517      H2554   0.965       .  S
O2518     Zr2521   2.386       .  S
O2518     Zr2537   2.401       .  S
Zr2519     O2544   2.441       .  S
Zr2519     O2538   2.476       .  S
Zr2519     O2546   2.553       .  S
Zr2519     O2534   2.478       .  S
Zr2519     O2525   2.379       .  S
Zr2519     O2526   2.424       .  S
Zr2519     O2943   2.377       .  S
Zr2519     O2944   2.398       .  S
Zr2520     O2955   2.443       .  S
Zr2520     O2532   2.439       .  S
Zr2520     O2928   2.414       .  S
Zr2520     O2533   2.381       .  S
Zr2520     O2933   2.402       .  S
Zr2520     O2526   2.409       .  S
Zr2520     O2943   2.367       .  S
Zr2521     O2523   2.439       .  S
Zr2521     O2961   2.444   1_554  S
Zr2521     O2963   2.394   1_554  S
Zr2521     O2932   2.394   1_554  S
Zr2521     O2941   2.382   1_554  S
Zr2521     O2528   2.403       .  S
Zr2522     O2548   2.438       .  S
Zr2522     O2549   2.434       .  S
Zr2522     O2524   2.437       .  S
Zr2522     O2525   2.367       .  S
Zr2522     O2526   2.406       .  S
O2523      H2560   0.990       .  S
O2524      H2555   0.990       .  S
O2524      H2569   0.990       .  S
O2525     Zr2937   2.382       .  S
O2526      H2552   0.965       .  S
O2527     Zr2935   2.378   1_554  S
O2527     Zr2936   2.366   1_554  S
O2527     Zr2537   2.365       .  S
O2528     Zr2935   2.396   1_554  S
O2528     Zr2537   2.405       .  S
O2528      H2553   0.964       .  S
C2529      O2925   1.286       .  A
C2529      C2677   1.463       .  S
C2530      C2670   1.476       .  S
C2531      C2688   1.467       .  S
O2532      H2568   0.989       .  S
O2533      C2535   1.277       .  A
O2534      C2535   1.291       .  A
C2535      C2661   1.491       .  S
O2536     Zr2537   2.436       .  S
O2536      H2565   0.990       .  S
Zr2537     O2540   2.441       .  S
Zr2537     O2541   2.448       .  S
Zr2537     O2542   2.414       .  S
O2538      C2959   1.298       .  A
O2539     Zr2936   2.441   1_554  S
O2539      H2556   0.990       .  S
O2539      H2571   0.989       .  S
O2540      H2557   0.990       .  S
O2541      H2561   0.990       .  S
O2541      H2570   0.989       .  S
O2542      C2543   1.273       .  A
C2543      O2954   1.297   1_554  A
C2543      C2650   1.484       .  S
O2544      H2563   0.990       .  S
O2544      H2567   0.991       .  S
O2545     Zr2937   2.443       .  S
O2545      H2559   0.990       .  S
O2545      H2566   0.990       .  S
O2546      C2550   1.310       .  A
O2547     Zr2937   2.395       .  S
O2547      C2550   1.272       .  A
O2548      H2558   0.990       .  S
O2549      H2562   0.990       .  S
C2550      C2577   1.501       .  S
C2573      C2574   1.417       .  A
C2573      C2578   1.424       .  A
C2573      C2901   1.486       .  S
C2574      C2575   1.416       .  A
C2574      H2579   1.083       .  S
C2575      C2605   1.486       .  S
C2575      C2576   1.403       .  A
C2576      C2577   1.386       .  A
C2576      H2580   1.085       .  S
C2577      C2578   1.429       .  A
C2578      H2581   1.083       .  S
Zr2582     O2583   2.441       .  S
Zr2582     O2584   2.470       .  S
Zr2582     O2585   2.514       .  S
Zr2582     O2588   2.453       .  S
Zr2582     O3006   2.378       .  S
Zr2582     O3007   2.401       .  S
Zr2582     O2592   2.413       .  S
Zr2582     O2593   2.421       .  S
O2583      H2639   0.990       .  S
O2583      H2647   0.990       .  S
O2584      C3020   1.292       .  A
O2585      C2606   1.300       .  A
O2586     Zr2596   2.413       .  S
O2586      C2605   1.285       .  A
O2587     Zr3011   2.372       .  S
O2587      C2606   1.272       .  A
O2588      C2605   1.285       .  A
O2589     Zr2597   2.429       .  S
O2589      C2604   1.281       .  A
O2590     Zr2998   2.380   1_554  S
O2590     Zr2595   2.399       .  S
O2590     Zr2597   2.394       .  S
O2591     Zr2998   2.403   1_554  S
O2591     Zr3012   2.364       .  S
O2591     Zr2597   2.369       .  S
O2591      H2626   0.965       .  S
O2592     Zr3011   2.405       .  S
O2592     Zr2612   2.395       .  S
O2592      H2629   0.963       .  S
O2593     Zr2596   2.394       .  S
O2593     Zr2612   2.394       .  S
Zr2594     O2619   2.441       .  S
Zr2594     O2613   2.443       .  S
Zr2594     O2621   2.425       .  S
Zr2594     O2609   2.454       .  S
Zr2594     O2600   2.421       .  S
Zr2594     O2601   2.404       .  S
Zr2594     O3018   2.383   1_554  S
Zr2594     O3019   2.394   1_554  S
Zr2595     O3030   2.439   1_554  S
Zr2595     O2607   2.435       .  S
Zr2595     O3003   2.375   1_554  S
Zr2595     O2608   2.388       .  S
Zr2595     O3008   2.407   1_554  S
Zr2595     O2601   2.386       .  S
Zr2595     O3018   2.392   1_554  S
Zr2596     O2598   2.435       .  S
Zr2596     O3036   2.435       .  S
Zr2596     O3038   2.436       .  S
Zr2596     O3007   2.367       .  S
Zr2596     O3016   2.373       .  S
Zr2596     O2603   2.367       .  S
Zr2597     O2623   2.436       .  S
Zr2597     O2624   2.433       .  S
Zr2597     O2599   2.438       .  S
Zr2597     O2600   2.407       .  S
Zr2597     O2601   2.392       .  S
O2598      H2635   0.989       .  S
O2599      H2630   0.991       .  S
O2599      H2644   0.990       .  S
O2600     Zr3012   2.371       .  S
O2601      H2627   0.964       .  S
O2602     Zr3010   2.382       .  S
O2602     Zr3011   2.393       .  S
O2602     Zr2612   2.384       .  S
O2603     Zr3010   2.391       .  S
O2603     Zr2612   2.355       .  S
O2603      H2628   0.963       .  S
C2604      O3000   1.291       .  A
C2604      C2686   1.479       .  S
C2606      C2659   1.488       .  S
O2607      H2643   0.990       .  S
O2608      C2610   1.277       .  A
O2609      C2610   1.290       .  A
C2610      C2668   1.469       .  S
O2611     Zr2612   2.439       .  S
O2611      H2640   0.990       .  S
Zr2612     O2615   2.437       .  S
Zr2612     O2616   2.447       .  S
Zr2612     O2617   2.450       .  S
O2613      C3034   1.289   1_554  A
O2614     Zr3011   2.440       .  S
O2614      H2631   0.990       .  S
O2614      H2646   0.990       .  S
O2615      H2632   0.990       .  S
O2616      H2636   0.991       .  S
O2616      H2645   0.991       .  S
O2617      C2618   1.281       .  A
C2618      O3029   1.289       .  A
C2618      C2679   1.483       .  S
O2619      H2638   0.990       .  S
O2619      H2642   0.991       .  S
O2620     Zr3012   2.435       .  S
O2620      H2634   0.990       .  S
O2620      H2641   0.990       .  S
O2621      C2625   1.279       .  A
O2622     Zr3012   2.433       .  S
O2622      C2625   1.289       .  A
O2623      H2633   0.990       .  S
O2624      H2637   0.990       .  S
C2625      C2652   1.485       .  S
C2648      C2649   1.422       .  A
C2648      C2653   1.420       .  A
C2648      C2899   1.470       .  S
C2649      C2650   1.417       .  A
C2649      H2654   1.083       .  S
C2650      C2651   1.379       .  A
C2651      C2652   1.393       .  A
C2651      H2655   1.082       .  S
C2652      C2653   1.413       .  A
C2653      H2656   1.083       .  S
C2657      C2662   1.416       .  A
C2657      C2905   1.460       .  S
C2658      C2659   1.410       .  A
C2658      H2663   1.085       .  S
C2659      C2660   1.387   1_565  A
C2660      H2664   1.082       .  S
C2661      C2662   1.414       .  A
C2662      H2665   1.083       .  S
C2666      C2671   1.408       .  A
C2666      C2898   1.458       .  S
C2667      C2668   1.409       .  A
C2667      H2672   1.085       .  S
C2669      C2670   1.399       .  A
C2669      H2673   1.085       .  S
C2670      C2671   1.418       .  A
C2671      H2674   1.084       .  S
C2675      C2676   1.408   1_455  A
C2675      C2904   1.467       .  S
C2676      C2677   1.406       .  A
C2676      H2681   1.084       .  S
C2677      C2678   1.387       .  A
C2678      H3098   1.086       .  S
C2679      C2680   1.422       .  A
C2680      H2683   1.083       .  S
H2682      C3094   1.086       .  S
C2684      C2685   1.414       .  A
C2684      C2896   1.450       .  S
C2685      C2686   1.412       .  A
C2685      H2690   1.084       .  S
C2686      C2687   1.389   1_565  A
C2687      H2691   1.082       .  S
C2688      C2689   1.401       .  A
C2689      H2692   1.084       .  S
Zr2693     O2694   2.438       .  S
Zr2693     O2695   2.459       .  S
Zr2693     O2696   2.525       .  S
Zr2693     O2699   2.463       .  S
Zr2693     O2701   2.382       .  S
Zr2693     O2702   2.394       .  S
Zr2693     O2703   2.394       .  S
Zr2693     O2704   2.428       .  S
O2694      H2750   0.990       .  S
O2694      H2758   0.990       .  S
O2695      C2715   1.292       .  A
O2696      C2717   1.304       .  A
O2697     Zr2707   2.415       .  S
O2697      C2716   1.285       .  A
O2698     Zr2706   2.340       .  S
O2698      C2717   1.267       .  A
O2699      C2716   1.288       .  A
O2700     Zr2708   2.397       .  S
O2700      C2715   1.273       .  A
O2701     Zr2706   2.391       .  S
O2701     Zr2708   2.394       .  S
O2702     Zr2707   2.366       .  S
O2702     Zr2708   2.361       .  S
O2702      H2737   0.965       .  S
O2703     Zr2706   2.400       .  S
O2703     Zr2723   2.367       .  S
O2703      H2740   0.964       .  S
O2704     Zr2707   2.390       .  S
O2704     Zr2723   2.390       .  S
Zr2705     O2730   2.439       .  S
Zr2705     O2724   2.441       .  S
Zr2705     O2732   2.438       .  S
Zr2705     O2720   2.501       .  S
Zr2705     O2711   2.413       .  S
Zr2705     O2712   2.391       .  S
Zr2705     O2713   2.371       .  S
Zr2705     O2714   2.397       .  S
Zr2706     O2725   2.437       .  S
Zr2706     O2718   2.436       .  S
Zr2706     O2719   2.364       .  S
Zr2706     O2712   2.390       .  S
Zr2706     O2713   2.383       .  S
Zr2707     O2709   2.435       .  S
Zr2707     O2731   2.436       .  S
Zr2707     O2733   2.430       .  S
Zr2707     O2711   2.385       .  S
Zr2707     O2714   2.357       .  S
Zr2708     O2734   2.435       .  S
Zr2708     O2735   2.434       .  S
Zr2708     O2710   2.438       .  S
Zr2708     O2711   2.382       .  S
Zr2708     O2712   2.378       .  S
O2709      H2746   0.990       .  S
O2710      H2741   0.990       .  S
O2710      H2755   0.990       .  S
O2712      H2738   0.964       .  S
O2713     Zr2723   2.396       .  S
O2714     Zr2723   2.369       .  S
O2714      H2739   0.965       .  S
C2715      C2838   1.458       .  S
C2716      C2863   1.502       .  S
C2717      C2872   1.467       .  S
O2718      H2754   0.990       .  S
O2719      C2721   1.270       .  A
O2720      C2721   1.299       .  A
C2721      C2845   1.474       .  S
O2722     Zr2723   2.438       .  S
O2722      H2751   0.990       .  S
Zr2723     O2726   2.437       .  S
Zr2723     O2727   2.439       .  S
Zr2723     O2728   2.387       .  S
O2724      C2729   1.287       .  A
O2725      H2742   0.990       .  S
O2725      H2757   0.990       .  S
O2726      H2743   0.990       .  S
O2727      H2747   0.990       .  S
O2727      H2756   0.989       .  S
O2728      C2729   1.273       .  A
C2729      C2856   1.446       .  S
O2730      H2749   0.991       .  S
O2730      H2753   0.990       .  S
O2731      H2745   0.990       .  S
O2731      H2752   0.990       .  S
O2732      C2736   1.282       .  A
O2733      C2736   1.289       .  A
O2734      H2744   0.990       .  S
O2735      H2748   0.990       .  S
C2736      C2761   1.491       .  S
C2759      C2760   1.420       .  A
C2759      C2764   1.420       .  A
C2759      C2907   1.460       .  S
C2760      C2761   1.411       .  A
C2760      H2765   1.083       .  S
C2761      C2762   1.391       .  A
C2762      C2763   1.395       .  A
C2762      H2766   1.082       .  S
C2763      C2796   1.494       .  S
C2763      C2764   1.410       .  A
C2764      H2767   1.083       .  S
Zr2768     O2769   2.442       .  S
Zr2768     O2770   2.428       .  S
Zr2768     O2771   2.467       .  S
Zr2768     O2774   2.487       .  S
Zr2768     O2776   2.390       .  S
Zr2768     O2777   2.383       .  S
Zr2768     O2778   2.414       .  S
Zr2768     O2779   2.383       .  S
O2769      H2825   0.991       .  S
O2769      H2833   0.990       .  S
O2770      C2790   1.285       .  A
O2771      C2792   1.286       .  A
O2772     Zr2782   2.370       .  S
O2772      C2791   1.271       .  A
O2773     Zr2781   2.419       .  S
O2773      C2792   1.287       .  A
O2774      C2791   1.298       .  A
O2775     Zr2783   2.392       .  S
O2775      C2790   1.273       .  A
O2776     Zr2781   2.370       .  S
O2776     Zr2783   2.368       .  S
O2777     Zr2782   2.390       .  S
O2777     Zr2783   2.400       .  S
O2777      H2812   0.966       .  S
O2778     Zr2781   2.400       .  S
O2778     Zr2798   2.394       .  S
O2778      H2815   0.963       .  S
O2779     Zr2782   2.391       .  S
O2779     Zr2798   2.379       .  S
Zr2780     O2805   2.438       .  S
Zr2780     O2799   2.434       .  S
Zr2780     O2807   2.484       .  S
Zr2780     O2795   2.445       .  S
Zr2780     O2786   2.384       .  S
Zr2780     O2787   2.414       .  S
Zr2780     O2788   2.395       .  S
Zr2780     O2789   2.396       .  S
Zr2781     O2800   2.436       .  S
Zr2781     O2793   2.434       .  S
Zr2781     O2794   2.420       .  S
Zr2781     O2787   2.385       .  S
Zr2781     O2788   2.368       .  S
Zr2782     O2784   2.440       .  S
Zr2782     O2806   2.443       .  S
Zr2782     O2808   2.379       .  S
Zr2782     O2786   2.379       .  S
Zr2782     O2789   2.401       .  S
Zr2783     O2809   2.436       .  S
Zr2783     O2810   2.434       .  S
Zr2783     O2785   2.440       .  S
Zr2783     O2786   2.368       .  S
Zr2783     O2787   2.389       .  S
O2784      H2821   0.990       .  S
O2785      H2816   0.990       .  S
O2785      H2830   0.989       .  S
O2787      H2813   0.965       .  S
O2788     Zr2798   2.371       .  S
O2789     Zr2798   2.393       .  S
O2789      H2814   0.966       .  S
C2790      C2847   1.450       .  S
C2791      C2854   1.472       .  S
C2792      C2865   1.496       .  S
O2793      H2829   0.990       .  S
O2794      C2796   1.287       .  A
O2795      C2796   1.284       .  A
O2797     Zr2798   2.438       .  S
O2797      H2826   0.990       .  S
Zr2798     O2801   2.440       .  S
Zr2798     O2802   2.443       .  S
Zr2798     O2803   2.414       .  S
O2799      C2804   1.284       .  A
O2800      H2817   0.990       .  S
O2800      H2832   0.990       .  S
O2801      H2818   0.991       .  S
O2802      H2822   0.990       .  S
O2802      H2831   0.990       .  S
O2803      C2804   1.269       .  A
C2804      C2874   1.458       .  S
O2805      H2824   0.990       .  S
O2805      H2828   0.990       .  S
O2806      H2820   0.990       .  S
O2806      H2827   0.990       .  S
O2807      C2811   1.294       .  A
O2808      C2811   1.263       .  A
O2809      H2819   0.990       .  S
O2810      H2823   0.990       .  S
C2811      C2836   1.476       .  S
C2834      C2839   1.411       .  A
C2834      C2912   1.471       .  S
C2835      C2836   1.421       .  A
C2835      H2840   1.084       .  S
C2837      C2838   1.387       .  A
C2838      C2839   1.411       .  A
C2839      H2842   1.084       .  S
C2843      C2844   1.412       .  A
C2843      C2909   1.459       .  S
C2844      C2845   1.420       .  A
C2844      H2849   1.084       .  S
C2845      C2846   1.386       .  A
C2846      H2850   1.086       .  S
C2847      C2848   1.403       .  A
C2848      H2851   1.084       .  S
C2852      C2857   1.403       .  A
C2852      C2894   1.456       .  S
C2853      C2854   1.419       .  A
C2853      H2858   1.084       .  S
C2855      C2856   1.384       .  A
C2855      H2859   1.086       .  S
C2856      C2857   1.403       .  A
C2857      H2860   1.084       .  S
C2861      C2862   1.422       .  A
C2861      C2866   1.420       .  A
C2861      C2892   1.461       .  S
C2862      C2863   1.412       .  A
C2862      H2867   1.083       .  S
C2863      C2864   1.400       .  A
C2864      C2865   1.395       .  A
C2864      H2868   1.082       .  S
C2865      C2866   1.409       .  A
C2866      H2869   1.083       .  S
C2870      C2875   1.410       .  A
C2870      C2890   1.470       .  S
C2871      C2872   1.421       .  A
C2871      H2876   1.084       .  S
C2873      C2874   1.392       .  A
C2873      H2877   1.086       .  S
C2874      C2875   1.411       .  A
C2875      H2878   1.084       .  S
C2879      H2880   1.111       .  S
C2879      C2884   1.549       .  S
C2879      C2883   1.545       .  S
C2881      H2882   1.111       .  S
C2881      C2887   1.547       .  S
C2881      C2886   1.558       .  S
C2883      C2895   1.457       .  S
C2883      C2886   1.371       .  D
C2884      C2897   1.464       .  S
C2884      C2887   1.368       .  D
C2885      C2900   1.476       .  S
C2885      C2888   1.375       .  D
C2886      C2889   1.475       .  S
C2887      C2893   1.462       .  S
C2888      C2891   1.467       .  S
C2889      C2890   1.224       .  T
C2891      C2892   1.219       .  T
C2893      C2894   1.216       .  T
C2895      C2896   1.212       .  T
C2897      C2898   1.217       .  T
C2899      C2900   1.224       .  T
C2901      C2902   1.234       .  T
C2903      C2904   1.223   1_655  T
C2907      C2908   1.218       .  T
C2911      C2912   1.225       .  T
C2913      H2914   1.111       .  S
C2913      C2918   1.556       .  S
C2913      C2917   1.552       .  S
C2915      H2916   1.111       .  S
C2915      C2922   1.571       .  S
C2917      C3327   1.477       .  S
C2918      C3326   1.465       .  S
C2919      C3324   1.465       .  S
C2919      C2922   1.374       .  D
C2920      C3322   1.467       .  S
C2921      C3319   1.475       .  S
C2922      C3318   1.489       .  S
Zr2923     O2924   2.438       .  S
Zr2923     O2925   2.435       .  S
Zr2923     O2926   2.438       .  S
Zr2923     O2929   2.435       .  S
Zr2923     O2933   2.417       .  S
Zr2923     O2934   2.403       .  S
O2924      H2980   0.990       .  S
O2924      H2988   0.990       .  S
O2926      C2947   1.280       .  A
O2927     Zr2937   2.412       .  S
O2927      C2946   1.277       .  A
O2928      C2947   1.276       .  A
O2929      C2946   1.287       .  A
O2930     Zr2938   2.418       .  S
O2930      C2945   1.278       .  A
O2931     Zr2936   2.357       .  S
O2931     Zr2938   2.346       .  S
O2932     Zr2938   2.398       .  S
O2932      H2967   0.966       .  S
O2933     Zr2953   2.401       .  S
O2933      H2970   0.965       .  S
O2934     Zr2937   2.382       .  S
O2934     Zr2953   2.399       .  S
Zr2935     O2960   2.438       .  S
Zr2935     O2954   2.474       .  S
Zr2935     O2962   2.554       .  S
Zr2935     O2950   2.477       .  S
Zr2935     O2941   2.380       .  S
Zr2935     O2942   2.423       .  S
Zr2936     O2948   2.438       .  S
Zr2936     O2949   2.381       .  S
Zr2936     O2942   2.406       .  S
Zr2937     O2939   2.438       .  S
Zr2937     O2944   2.406       .  S
Zr2938     O2964   2.436       .  S
Zr2938     O2965   2.435       .  S
Zr2938     O2940   2.437       .  S
Zr2938     O2941   2.367       .  S
Zr2938     O2942   2.403       .  S
O2939      H2976   0.990       .  S
O2940      H2971   0.990       .  S
O2940      H2985   0.990       .  S
O2942      H2968   0.965       .  S
O2943     Zr2953   2.364       .  S
O2944     Zr2953   2.403       .  S
O2944      H2969   0.964       .  S
C2945      C3093   1.462       .  S
C2946      C3086   1.478       .  S
C2947      C3104   1.468       .  S
O2948      H2984   0.989       .  S
O2949      C2951   1.277       .  A
O2950      C2951   1.291       .  A
C2951      C3077   1.491       .  S
O2952     Zr2953   2.434       .  S
O2952      H2981   0.990       .  S
Zr2953     O2956   2.439       .  S
Zr2953     O2957   2.444       .  S
Zr2953     O2958   2.418       .  S
O2955      H2972   0.990       .  S
O2955      H2987   0.989       .  S
O2956      H2973   0.990       .  S
O2957      H2977   0.991       .  S
O2957      H2986   0.989       .  S
O2958      C2959   1.274       .  A
C2959      C3066   1.487       .  S
O2960      H2979   0.990       .  S
O2960      H2983   0.990       .  S
O2961      H2975   0.990   1_556  S
O2961      H2982   0.990       .  S
O2962      C2966   1.310       .  A
O2963      C2966   1.271       .  A
O2964      H2974   0.990       .  S
O2965      H2978   0.990       .  S
C2966      C2993   1.501       .  S
C2989      C2990   1.418       .  A
C2989      C2994   1.424       .  A
C2989      C3317   1.485       .  S
C2990      C2991   1.415       .  A
C2990      H2995   1.083       .  S
C2991      C3021   1.487       .  S
C2991      C2992   1.404       .  A
C2992      C2993   1.386       .  A
C2992      H2996   1.084       .  S
C2993      C2994   1.429       .  A
C2994      H2997   1.083       .  S
Zr2998     O2999   2.440       .  S
Zr2998     O3000   2.465   1_556  S
Zr2998     O3001   2.518       .  S
Zr2998     O3004   2.459       .  S
Zr2998     O3008   2.414       .  S
Zr2998     O3009   2.420       .  S
O2999      H3055   0.990       .  S
O2999      H3063   0.990       .  S
O3001      C3022   1.301       .  A
O3002     Zr3012   2.409   1_556  S
O3002      C3021   1.284       .  A
O3003      C3022   1.273       .  A
O3004      C3021   1.287       .  A
O3005     Zr3013   2.420       .  S
O3005      C3020   1.279       .  A
O3006     Zr3011   2.397       .  S
O3006     Zr3013   2.393       .  S
O3007     Zr3013   2.371       .  S
O3007      H3042   0.965       .  S
O3008     Zr3028   2.392       .  S
O3008      H3045   0.964       .  S
O3009     Zr3012   2.393   1_556  S
O3009     Zr3028   2.391       .  S
Zr3010     O3035   2.440       .  S
Zr3010     O3029   2.439       .  S
Zr3010     O3037   2.425       .  S
Zr3010     O3025   2.455       .  S
Zr3010     O3016   2.417       .  S
Zr3010     O3017   2.402       .  S
Zr3011     O3023   2.435       .  S
Zr3011     O3024   2.387       .  S
Zr3011     O3017   2.385       .  S
Zr3012     O3014   2.436   1_554  S
Zr3012     O3019   2.370   1_554  S
Zr3013     O3039   2.436       .  S
Zr3013     O3040   2.434       .  S
Zr3013     O3015   2.439       .  S
Zr3013     O3016   2.404       .  S
Zr3013     O3017   2.393       .  S
O3014      H3051   0.990   1_556  S
O3015      H3046   0.990       .  S
O3015      H3060   0.990       .  S
O3017      H3043   0.964       .  S
O3018     Zr3028   2.384       .  S
O3019     Zr3028   2.358       .  S
O3019      H3044   0.964       .  S
C3020      C3102   1.478       .  S
C3022      C3075   1.491       .  S
O3023      H3059   0.990       .  S
O3024      C3026   1.276       .  A
O3025      C3026   1.290       .  A
C3026      C3084   1.468       .  S
O3027     Zr3028   2.435       .  S
O3027      H3056   0.990       .  S
Zr3028     O3031   2.438       .  S
Zr3028     O3032   2.443       .  S
Zr3028     O3033   2.444       .  S
O3030      H3047   0.990       .  S
O3030      H3062   0.989       .  S
O3031      H3048   0.990       .  S
O3032      H3052   0.991       .  S
O3032      H3061   0.991       .  S
O3033      C3034   1.281       .  A
C3034      C3095   1.481       .  S
O3035      H3054   0.991       .  S
O3035      H3058   0.990       .  S
O3036      H3050   0.990       .  S
O3036      H3057   0.989       .  S
O3037      C3041   1.279       .  A
O3038      C3041   1.290       .  A
O3039      H3049   0.990       .  S
O3040      H3053   0.990       .  S
C3041      C3068   1.487       .  S
C3064      C3065   1.423       .  A
C3064      C3069   1.421       .  A
C3064      C3315   1.471       .  S
C3065      C3066   1.417       .  A
C3065      H3070   1.083       .  S
C3066      C3067   1.380       .  A
C3067      C3068   1.394       .  A
C3067      H3071   1.082       .  S
C3068      C3069   1.413       .  A
C3069      H3072   1.083       .  S
C3073      C3078   1.416       .  A
C3073      C3321   1.461       .  S
C3074      C3075   1.411       .  A
C3074      H3079   1.084       .  S
C3075      C3076   1.388   1_565  A
C3076      H3080   1.083       .  S
C3077      C3078   1.414       .  A
C3078      H3081   1.083       .  S
C3082      C3087   1.407       .  A
C3082      C3314   1.459       .  S
C3083      C3084   1.409       .  A
C3083      H3088   1.085       .  S
C3085      C3086   1.402       .  A
C3085      H3089   1.084       .  S
C3086      C3087   1.418       .  A
C3087      H3090   1.084       .  S
C3091      C3092   1.408   1_455  A
C3091      C3320   1.469       .  S
C3092      C3093   1.406       .  A
C3092      H3097   1.084       .  S
C3093      C3094   1.387       .  A
C3095      C3096   1.422       .  A
C3096      H3099   1.083       .  S
C3100      C3101   1.414       .  A
C3100      C3312   1.450       .  S
C3101      C3102   1.412       .  A
C3101      H3106   1.084       .  S
C3102      C3103   1.388   1_565  A
C3103      H3107   1.080       .  S
C3104      C3105   1.402       .  A
C3105      H3108   1.084       .  S
Zr3109     O3110   2.439       .  S
Zr3109     O3111   2.461       .  S
Zr3109     O3112   2.523       .  S
Zr3109     O3115   2.465       .  S
Zr3109     O3117   2.379       .  S
Zr3109     O3118   2.397       .  S
Zr3109     O3119   2.397       .  S
Zr3109     O3120   2.429       .  S
O3110      H3166   0.990       .  S
O3110      H3174   0.990       .  S
O3111      C3131   1.292       .  A
O3112      C3133   1.303       .  A
O3113     Zr3123   2.416       .  S
O3113      C3132   1.285       .  A
O3114     Zr3122   2.341       .  S
O3114      C3133   1.266       .  A
O3115      C3132   1.288       .  A
O3116     Zr3124   2.396       .  S
O3116      C3131   1.273       .  A
O3117     Zr3122   2.390       .  S
O3117     Zr3124   2.394       .  S
O3118     Zr3123   2.366       .  S
O3118     Zr3124   2.363       .  S
O3118      H3153   0.965       .  S
O3119     Zr3122   2.398       .  S
O3119     Zr3139   2.374       .  S
O3119      H3156   0.964       .  S
O3120     Zr3123   2.390       .  S
O3120     Zr3139   2.391       .  S
Zr3121     O3146   2.440       .  S
Zr3121     O3140   2.437       .  S
Zr3121     O3148   2.448       .  S
Zr3121     O3136   2.506       .  S
Zr3121     O3127   2.415       .  S
Zr3121     O3128   2.393       .  S
Zr3121     O3129   2.372       .  S
Zr3121     O3130   2.399       .  S
Zr3122     O3141   2.438       .  S
Zr3122     O3134   2.436       .  S
Zr3122     O3135   2.359       .  S
Zr3122     O3128   2.393       .  S
Zr3122     O3129   2.380       .  S
Zr3123     O3125   2.434       .  S
Zr3123     O3147   2.434       .  S
Zr3123     O3149   2.428       .  S
Zr3123     O3127   2.389       .  S
Zr3123     O3130   2.360       .  S
Zr3124     O3150   2.436       .  S
Zr3124     O3151   2.435       .  S
Zr3124     O3126   2.440       .  S
Zr3124     O3127   2.385       .  S
Zr3124     O3128   2.379       .  S
O3125      H3162   0.990       .  S
O3126      H3157   0.990       .  S
O3126      H3171   0.990       .  S
O3128      H3154   0.964       .  S
O3129     Zr3139   2.396       .  S
O3130     Zr3139   2.369       .  S
O3130      H3155   0.965       .  S
C3131      C3254   1.457       .  S
C3132      C3279   1.503       .  S
C3133      C3288   1.468       .  S
O3134      H3170   0.990       .  S
O3135      C3137   1.269       .  A
O3136      C3137   1.300       .  A
C3137      C3261   1.473       .  S
O3138     Zr3139   2.439       .  S
O3138      H3167   0.990       .  S
Zr3139     O3142   2.438       .  S
Zr3139     O3143   2.438       .  S
Zr3139     O3144   2.393       .  S
O3140      C3145   1.286       .  A
O3141      H3158   0.990       .  S
O3141      H3173   0.990       .  S
O3142      H3159   0.990       .  S
O3143      H3163   0.990       .  S
O3143      H3172   0.989       .  S
O3144      C3145   1.274       .  A
C3145      C3272   1.449       .  S
O3146      H3165   0.990       .  S
O3146      H3169   0.991       .  S
O3147      H3161   0.990       .  S
O3147      H3168   0.990       .  S
O3148      C3152   1.284       .  A
O3149      C3152   1.288       .  A
O3150      H3160   0.990       .  S
O3151      H3164   0.990       .  S
C3152      C3177   1.494       .  S
C3175      C3176   1.420       .  A
C3175      C3180   1.418       .  A
C3175      C3323   1.458       .  S
C3176      C3177   1.411       .  A
C3176      H3181   1.083       .  S
C3177      C3178   1.393       .  A
C3178      C3179   1.397       .  A
C3178      H3182   1.082       .  S
C3179      C3212   1.493       .  S
C3179      C3180   1.409       .  A
C3180      H3183   1.083       .  S
Zr3184     O3185   2.440       .  S
Zr3184     O3186   2.435       .  S
Zr3184     O3187   2.467       .  S
Zr3184     O3190   2.477       .  S
Zr3184     O3192   2.385       .  S
Zr3184     O3193   2.383       .  S
Zr3184     O3194   2.415       .  S
Zr3184     O3195   2.387       .  S
O3185      H3241   0.990       .  S
O3185      H3249   0.990       .  S
O3186      C3206   1.286       .  A
O3187      C3208   1.286       .  A
O3188     Zr3198   2.376       .  S
O3188      C3207   1.272       .  A
O3189     Zr3197   2.425       .  S
O3189      C3208   1.288       .  A
O3190      C3207   1.296       .  A
O3191     Zr3199   2.390       .  S
O3191      C3206   1.273       .  A
O3192     Zr3197   2.371       .  S
O3192     Zr3199   2.371       .  S
O3193     Zr3198   2.392       .  S
O3193     Zr3199   2.398       .  S
O3193      H3228   0.966       .  S
O3194     Zr3197   2.394       .  S
O3194     Zr3214   2.399       .  S
O3194      H3231   0.963       .  S
O3195     Zr3198   2.387       .  S
O3195     Zr3214   2.378       .  S
Zr3196     O3221   2.437       .  S
Zr3196     O3215   2.434       .  S
Zr3196     O3223   2.492       .  S
Zr3196     O3211   2.449       .  S
Zr3196     O3202   2.383       .  S
Zr3196     O3203   2.416       .  S
Zr3196     O3204   2.395       .  S
Zr3196     O3205   2.398       .  S
Zr3197     O3216   2.437       .  S
Zr3197     O3209   2.432       .  S
Zr3197     O3210   2.415       .  S
Zr3197     O3203   2.391       .  S
Zr3197     O3204   2.369       .  S
Zr3198     O3200   2.440       .  S
Zr3198     O3222   2.443       .  S
Zr3198     O3224   2.379       .  S
Zr3198     O3202   2.381       .  S
Zr3198     O3205   2.403       .  S
Zr3199     O3225   2.437       .  S
Zr3199     O3226   2.433       .  S
Zr3199     O3201   2.438       .  S
Zr3199     O3202   2.367       .  S
Zr3199     O3203   2.387       .  S
O3200      H3237   0.990       .  S
O3201      H3232   0.989       .  S
O3201      H3246   0.989       .  S
O3203      H3229   0.965       .  S
O3204     Zr3214   2.369       .  S
O3205     Zr3214   2.393       .  S
O3205      H3230   0.966       .  S
C3206      C3263   1.452       .  S
C3207      C3270   1.471       .  S
C3208      C3281   1.498       .  S
O3209      H3245   0.990       .  S
O3210      C3212   1.286       .  A
O3211      C3212   1.285       .  A
O3213     Zr3214   2.438       .  S
O3213      H3242   0.990       .  S
Zr3214     O3217   2.442       .  S
Zr3214     O3218   2.443       .  S
Zr3214     O3219   2.421       .  S
O3215      C3220   1.284       .  A
O3216      H3233   0.990       .  S
O3216      H3248   0.990       .  S
O3217      H3234   0.991       .  S
O3218      H3238   0.990       .  S
O3218      H3247   0.990       .  S
O3219      C3220   1.271       .  A
C3220      C3290   1.460       .  S
O3221      H3240   0.990       .  S
O3221      H3244   0.990       .  S
O3222      H3236   0.990       .  S
O3222      H3243   0.990       .  S
O3223      C3227   1.296       .  A
O3224      C3227   1.264       .  A
O3225      H3235   0.990       .  S
O3226      H3239   0.990       .  S
C3227      C3252   1.478       .  S
C3250      C3255   1.411       .  A
C3250      C3328   1.471       .  S
C3251      C3252   1.422       .  A
C3251      H3256   1.084       .  S
C3253      C3254   1.386       .  A
C3254      C3255   1.411       .  A
C3255      H3258   1.084       .  S
C3259      C3260   1.412       .  A
C3259      C3325   1.457       .  S
C3260      C3261   1.420       .  A
C3260      H3265   1.084       .  S
C3261      C3262   1.384       .  A
C3262      H3266   1.086       .  S
C3263      C3264   1.405       .  A
C3264      H3267   1.084       .  S
C3268      C3273   1.404       .  A
C3268      C3310   1.456       .  S
C3269      C3270   1.419       .  A
C3269      H3274   1.084       .  S
C3271      C3272   1.386       .  A
C3271      H3275   1.086       .  S
C3272      C3273   1.403       .  A
C3273      H3276   1.084       .  S
C3277      C3278   1.422       .  A
C3277      C3282   1.421       .  A
C3277      C3308   1.461       .  S
C3278      C3279   1.412       .  A
C3278      H3283   1.083       .  S
C3279      C3280   1.401       .  A
C3280      C3281   1.395       .  A
C3280      H3284   1.082       .  S
C3281      C3282   1.410       .  A
C3282      H3285   1.083       .  S
C3286      C3291   1.412       .  A
C3286      C3306   1.472       .  S
C3287      C3288   1.419       .  A
C3287      H3292   1.084       .  S
C3289      C3290   1.392       .  A
C3289      H3293   1.086       .  S
C3290      C3291   1.413       .  A
C3291      H3294   1.083       .  S
C3295      H3296   1.111       .  S
C3295      C3300   1.549       .  S
C3295      C3299   1.546       .  S
C3297      H3298   1.111       .  S
C3297      C3303   1.547       .  S
C3297      C3302   1.557       .  S
C3299      C3311   1.456       .  S
C3299      C3302   1.372       .  D
C3300      C3313   1.464       .  S
C3300      C3303   1.369       .  D
C3301      C3316   1.477       .  S
C3301      C3304   1.375       .  D
C3302      C3305   1.476       .  S
C3303      C3309   1.462       .  S
C3304      C3307   1.466       .  S
C3305      C3306   1.225       .  T
C3307      C3308   1.219       .  T
C3309      C3310   1.215       .  T
C3311      C3312   1.212       .  T
C3313      C3314   1.217       .  T
C3315      C3316   1.225       .  T
C3317      C3318   1.233       .  T
C3319      C3320   1.224   1_655  T
C3323      C3324   1.217       .  T
C3327      C3328   1.225       .  T
