geometry optimzed in LAMMPS
_audit_creation_date              2020-11-30 
_audit_creation_method            'lammps2cif' 
_symmetry_space_group_name_H-M    'P1' 
_symmetry_Int_Tables_number       1 
_symmetry_cell_setting            triclinic 
loop_ 
_symmetry_equiv_pos_as_xyz 
  x,y,z 
_cell_length_a                    25.86404718 
_cell_length_b                    26.523619084142734 
_cell_length_c                    49.02303321077568 
_cell_angle_alpha                 90.00046158782094 
_cell_angle_beta                  90.07326510029417 
_cell_angle_gamma                 89.99709283036161 
loop_ 
_atom_site_label 
_atom_site_type_symbol 
_atom_site_fract_x 
_atom_site_fract_y 
_atom_site_fract_z 
_atom_site_charge 
C1          C  0.49809851  0.44703282  0.76821808     0.89100
C2          C  0.44995297  0.45382292  0.75035390    -0.51100
C3          C  0.45369794  0.99607294  0.73524952     0.12000
C4          C  0.50105870  0.03060757  0.74042197     0.23000
C5          C  0.04516825  0.45298784  0.74855014    -0.51900
C6          C  0.04902992  0.99627506  0.73454407     0.12100
C7          C  0.50022710  0.49478982  0.78611821    -0.51400
C8          C  0.00141723  0.03840651  0.77089241     0.12700
H9          H  0.41837585  0.42681118  0.74975987     0.17200
H10         H  0.50069364  0.06622165  0.72848777     0.02900
H11         H  0.07617767  0.42539479  0.74756917     0.17500
H12         H  0.50181724  0.49390286  0.80825811     0.17300
O13         O  0.19797144  0.50570981  0.62214481    -0.69200
O14         O  0.30137283  0.48810109  0.67656527    -0.69400
O15         O  0.19564031  0.48756166  0.67615219    -0.69300
O16         O  0.29984260  0.50628388  0.62248429    -0.69300
O17         O  0.30296317  0.08419440  0.63053491    -0.69200
O18         O  0.19847652  0.06609833  0.68424455    -0.69200
O19         O  0.30454579  0.06598886  0.68456486    -0.69200
O20         O  0.20093194  0.08424862  0.63015075    -0.69400
V21         V  0.24872123  0.49839233  0.64982245     1.35200
V22         V  0.25172051  0.07346167  0.65754698     1.35200
C23         C  0.18597050  0.04731103  0.61593859     0.80100
C24         C  0.32404152  0.02290125  0.68872741     0.80100
C25         C  0.17890335  0.02304523  0.68834497     0.80000
C26         C  0.31802620  0.04725518  0.61640532     0.79900
O27         O  0.29906326  0.50599467  0.37790351    -0.69200
O28         O  0.19456903  0.48811439  0.32428515    -0.69400
O29         O  0.30033205  0.48757365  0.32400884    -0.69300
O30         O  0.19706287  0.50668385  0.37822884    -0.69300
O31         O  0.19991604  0.08374967  0.37046884    -0.69200
O32         O  0.30356005  0.06556372  0.31633396    -0.69200
O33         O  0.19762707  0.06614746  0.31640573    -0.69200
O34         O  0.30198955  0.08311990  0.37041768    -0.69400
V35         V  0.24775064  0.49856606  0.35062153     1.35200
V36         V  0.25078275  0.07296907  0.34324407     1.35200
C37         C  0.31692648  0.04594954  0.38443173     0.80100
C38         C  0.17778298  0.02324641  0.31219344     0.80100
C39         C  0.32269221  0.02242458  0.31198100     0.80000
C40         C  0.18457668  0.04677800  0.38449538     0.79900
N41         N  0.49518008  0.49383835  0.95913893    -0.34000
N42         N  0.49129324  0.07193675  0.00035362    -0.54600
N43         N  0.49483381  0.49388361  0.04158807    -0.34000
N44         N  0.48840208  0.41590755  0.00034449    -0.54600
C45         C  0.48362939  0.03424592  0.94369448     0.29600
C46         C  0.48260547  0.45356673  0.94363677     0.29600
C47         C  0.48473634  0.03434293  0.05680367     0.29600
C48         C  0.48188644  0.45358837  0.05694748     0.29600
C49         C  0.49781678  0.10150718  0.97823609     0.38200
C50         C  0.49867159  0.10153737  0.02239715     0.38200
C51         C  0.49543953  0.38630434  0.97827943     0.38200
C52         C  0.49557921  0.38636731  0.02243135     0.38200
C53         C  0.46727957  0.01835227  0.91812391    -0.19300
C54         C  0.46675764  0.46957431  0.91800321    -0.19300
C55         C  0.46674875  0.01835443  0.08201347    -0.19300
C56         C  0.46519885  0.46951948  0.08242485    -0.19300
C57         C  0.50843495  0.15059780  0.98622353    -0.20300
C58         C  0.50899780  0.15061079  0.01431921    -0.20300
C59         C  0.50604588  0.33725847  0.98633171    -0.20300
C60         C  0.50617344  0.33730671  0.01441756    -0.20300
C61         C  0.49121093  0.08498974  0.95112184    -0.15700
C62         C  0.48949860  0.40277542  0.95112678    -0.15700
C63         C  0.48959646  0.40288744  0.04956356    -0.15700
C64         C  0.49254478  0.08507480  0.04952437    -0.15700
H65         H  0.45575977  0.04153883  0.90099254     0.17200
H66         H  0.45516365  0.44646912  0.90085349     0.17200
H67         H  0.45368699  0.04150712  0.09883089     0.17200
H68         H  0.45317255  0.44633620  0.09944455     0.17200
H69         H  0.51452623  0.18301691  0.97320349     0.15500
H70         H  0.51553213  0.18304014  0.02728059     0.15500
H71         H  0.51260168  0.30486359  0.97335650     0.15500
H72         H  0.51278867  0.30494591  0.02741740     0.15500
H73         H  0.51464374  0.49272913  0.97765132     0.28800
H74         H  0.51505129  0.49276530  0.02332056     0.28800
O75         O  0.03653450  0.19428700  0.12528378    -0.69200
O76         O  0.03870303  0.29507855  0.18052428    -0.69400
O77         O  0.03808154  0.19197202  0.18018238    -0.69300
O78         O  0.03742196  0.29387603  0.12566885    -0.69300
O79         O  0.45273540  0.29364291  0.12550157    -0.69200
O80         O  0.45512303  0.19230725  0.18025600    -0.69200
O81         O  0.45438565  0.29542826  0.18019604    -0.69200
O82         O  0.45346479  0.19400137  0.12547590    -0.69400
V83         V  0.03605692  0.24380182  0.15323567     1.35200
V84         V  0.45558017  0.24384412  0.15314787     1.35200
C85         C  0.49532330  0.17913032  0.11503001     0.80100
C86         C  0.49650326  0.31491263  0.18797709     0.80100
C87         C  0.49751883  0.17358479  0.18818432     0.80000
C88         C  0.49435494  0.30900117  0.11501615     0.79900
C89         C  0.49689760  0.44745630  0.23231713     0.89100
C90         C  0.04409979  0.45278758  0.25260093    -0.51100
C91         C  0.04760810  0.99674697  0.26615707     0.12000
C92         C  0.49919421  0.03075446  0.26030798     0.23000
C93         C  0.44965871  0.45343948  0.25082547    -0.51900
C94         C  0.45184494  0.99616285  0.26531248     0.12100
C95         C  0.49754369  0.49553043  0.21462772    -0.51400
C96         C  0.49941178  0.03872623  0.22919266     0.12700
H97         H  0.07515487  0.42527343  0.25385503     0.17200
H98         H  0.49861428  0.06643880  0.27217724     0.02900
H99         H  0.41829193  0.42621226  0.25159717     0.17500
H100        H  0.49793812  0.49502823  0.19247169     0.17300
O101        O  0.45303449  0.19342847  0.87468064    -0.69200
O102        O  0.45549129  0.29536674  0.82027642    -0.69400
O103        O  0.45632038  0.19235957  0.81992250    -0.69300
O104        O  0.45222555  0.29305081  0.87499106    -0.69300
O105        O  0.03664945  0.29400931  0.87559460    -0.69200
O106        O  0.03966362  0.19291231  0.82066463    -0.69200
O107        O  0.03914845  0.29612517  0.82080247    -0.69200
O108        O  0.03692500  0.19438143  0.87551127    -0.69400
V109        V  0.45592825  0.24355972  0.84719509     1.35200
V110        V  0.03647482  0.24435003  0.84780563     1.35200
C111        C  0.49458876  0.17876239  0.88559033     0.80100
C112        C  0.99742356  0.31485054  0.81190179     0.80100
C113        C  0.99818281  0.17343422  0.81195359     0.80000
C114        C  0.49356036  0.30850739  0.88580868     0.79900
N115        N  0.50098429  0.07276686  0.54102759    -0.34000
N116        N  0.08046388  0.07288944  0.50012157    -0.54600
N117        N  0.50021920  0.07356006  0.45975470    -0.34000
N118        N  0.41997328  0.07327892  0.50037481    -0.54600
C119        C  0.04292197  0.08176778  0.55666479     0.29600
C120        C  0.45903705  0.08384251  0.55622586     0.29600
C121        C  0.04092192  0.08110408  0.44368934     0.29600
C122        C  0.45808275  0.08372385  0.44445735     0.29600
C123        C  0.11030736  0.06309185  0.52212111     0.38200
C124        C  0.10957478  0.06325490  0.47787883     0.38200
C125        C  0.39129706  0.06216451  0.52252584     0.38200
C126        C  0.39096081  0.06190586  0.47833364     0.38200
C127        C  0.02815477  0.09955779  0.58210443    -0.19300
C128        C  0.47439075  0.10346831  0.58118888    -0.19300
C129        C  0.02515830  0.09738692  0.41809119    -0.19300
C130        C  0.47307940  0.10293009  0.41936162    -0.19300
C131        C  0.15934929  0.04856200  0.51386670    -0.20300
C132        C  0.15889596  0.04869719  0.48573818    -0.20300
C133        C  0.34296595  0.04484064  0.51460113    -0.20300
C134        C  0.34276191  0.04465288  0.48644306    -0.20300
C135        C  0.09400658  0.06945605  0.54938184    -0.15700
C136        C  0.40806601  0.07016957  0.54955074    -0.15700
C137        C  0.40734124  0.06956341  0.45123394    -0.15700
C138        C  0.09235111  0.06942074  0.45073470    -0.15700
H139        H  0.05297606  0.10950506  0.59906380     0.17200
H140        H  0.44991027  0.11467880  0.59802277     0.17200
H141        H  0.04931736  0.10653165  0.40077028     0.17200
H142        H  0.44840938  0.11331984  0.40241638     0.17200
H143        H  0.19199187  0.03912074  0.52672993     0.15500
H144        H  0.19111807  0.03932439  0.47261088     0.15500
H145        H  0.31123960  0.03382772  0.52768990     0.15500
H146        H  0.31084803  0.03348315  0.47347720     0.15500
H147        H  0.50103217  0.05084195  0.52344694     0.28800
H148        H  0.50063883  0.05196186  0.47744264     0.28800
C149        C  0.49663846  0.35985854  0.20462978    -0.10700
C150        C  0.49668631  0.39956212  0.21687419    -0.12200
C151        C  0.49831275  0.12867591  0.20493063    -0.10700
C152        C  0.49885679  0.08827977  0.21652750    -0.12200
C153        C  0.49340986  0.14721223  0.90914590    -0.10700
C154        C  0.49231433  0.12123477  0.92921506    -0.12200
C155        C  0.49064653  0.36640857  0.92927792    -0.10700
C156        C  0.49193739  0.34016426  0.90931471    -0.12200
C157        C  0.49158564  0.36674468  0.07149391    -0.10700
C158        C  0.49323142  0.34067406  0.09151401    -0.12200
C159        C  0.49380045  0.12126907  0.07147840    -0.10700
C160        C  0.49476673  0.14740452  0.09150699    -0.12200
C161        C  0.37225208  0.06089752  0.42880479    -0.10700
C162        C  0.34776007  0.05360208  0.40829520    -0.12200
C163        C  0.12794399  0.06179129  0.42839486    -0.10700
C164        C  0.15322211  0.05474694  0.40813658    -0.12200
C165        C  0.36785727  0.01637670  0.29482268    -0.10700
C166        C  0.40700299  0.00934378  0.28171710    -0.12200
C167        C  0.09258345  0.01056116  0.28241589    -0.10700
C168        C  0.13209151  0.01765306  0.29528705    -0.12200
C169        C  0.15515301  0.05522284  0.59201247    -0.10700
C170        C  0.13010084  0.06196072  0.57158856    -0.12200
C171        C  0.34873920  0.05525027  0.59258936    -0.10700
C172        C  0.37310723  0.06227068  0.57205349    -0.12200
C173        C  0.99939248  0.12841272  0.79522379    -0.10700
C174        C  0.00049268  0.08799493  0.78360649    -0.12200
C175        C  0.99788742  0.35960239  0.79499265    -0.10700
C176        C  0.99799111  0.39919934  0.78257849    -0.12200
C177        C  0.09386619  0.00990816  0.71815945    -0.10700
C178        C  0.13326379  0.01706369  0.70523279    -0.12200
C179        C  0.40879095  0.00947516  0.71882280    -0.10700
C180        C  0.36948895  0.01678396  0.70579750    -0.12200
C181        C  0.50200155  0.94703204  0.76848632     0.89100
C182        C  0.45483809  0.95223640  0.74976832    -0.51100
C183        C  0.44938610  0.49772445  0.73586891     0.12000
C184        C  0.49811181  0.53080899  0.74031995     0.23000
C185        C  0.04823116  0.95232609  0.74895218    -0.51900
C186        C  0.04603003  0.49698806  0.73417286     0.12100
C187        C  0.50137387  0.99492863  0.78631595    -0.51400
C188        C  0.99900228  0.53914936  0.77056510     0.12700
H189        H  0.42403474  0.92442095  0.74881470     0.17200
H190        H  0.49819048  0.56650643  0.72845795     0.02900
H191        H  0.07923774  0.92472982  0.74794329     0.17500
H192        H  0.50139085  0.99421491  0.80847224     0.17300
O193        O  0.20094959  0.00354644  0.62223802    -0.69200
O194        O  0.30447232  0.98539768  0.67656304    -0.69400
O195        O  0.19858530  0.98549166  0.67629095    -0.69300
O196        O  0.30292232  0.00349394  0.62256734    -0.69300
O197        O  0.29900783  0.58702796  0.63030112    -0.69200
O198        O  0.19528344  0.56809914  0.68433029    -0.69200
O199        O  0.30127389  0.56873660  0.68443151    -0.69200
O200        O  0.19707638  0.58634403  0.63026387    -0.69400
V201        V  0.25172645  0.99595536  0.64990166     1.35200
V202        V  0.24819931  0.57588820  0.65750346     1.35200
C203        C  0.18251336  0.54936853  0.61597317     0.80100
C204        C  0.32070288  0.52567357  0.68877459     0.80100
C205        C  0.17590559  0.52493158  0.68832704     0.80000
C206        C  0.31421390  0.55018816  0.61613357     0.79900
O207        O  0.30162476  0.00232556  0.37809445    -0.69200
O208        O  0.19719755  0.98547673  0.32418479    -0.69400
O209        O  0.30300190  0.98485676  0.32400989    -0.69300
O210        O  0.19955741  0.00299386  0.37824372    -0.69300
O211        O  0.19730061  0.58729035  0.37002147    -0.69200
O212        O  0.30090234  0.56813916  0.31591066    -0.69200
O213        O  0.19486629  0.56862982  0.31602610    -0.69200
O214        O  0.29935640  0.58667788  0.36985249    -0.69400
V215        V  0.25036491  0.99538106  0.35066136     1.35200
V216        V  0.24809681  0.57601969  0.34278715     1.35200
C217        C  0.31439564  0.54970350  0.38398079     0.80100
C218        C  0.17506613  0.52560591  0.31211190     0.80100
C219        C  0.32012380  0.52493227  0.31184205     0.80000
C220        C  0.18215527  0.55057598  0.38431284     0.79900
N221        N  0.49594484  0.99386642  0.95916859    -0.34000
N222        N  0.49799083  0.57194448  0.00046238    -0.54600
N223        N  0.49842294  0.99408208  0.04157425    -0.34000
N224        N  0.49996284  0.91593973  0.00044032    -0.54600
C225        C  0.48744723  0.53527433  0.94366573     0.29600
C226        C  0.48763463  0.95248053  0.94372856     0.29600
C227        C  0.48675520  0.53526501  0.05704456     0.29600
C228        C  0.48946996  0.95266927  0.05688133     0.29600
C229        C  0.50789292  0.60073394  0.97838704     0.38200
C230        C  0.50796239  0.60068549  0.02257047     0.38200
C231        C  0.50871468  0.88694870  0.97831232     0.38200
C232        C  0.51032177  0.88717718  0.02248021     0.38200
C233        C  0.46979375  0.52114952  0.91802068    -0.19300
C234        C  0.46977678  0.96675185  0.91814800    -0.19300
C235        C  0.46826143  0.52110815  0.08248638    -0.19300
C236        C  0.46973730  0.96675647  0.08206399    -0.19300
C237        C  0.52327958  0.64855184  0.98646006    -0.20300
C238        C  0.52335281  0.64850995  0.01455422    -0.20300
C239        C  0.52387992  0.83900461  0.98629593    -0.20300
C240        C  0.52495210  0.83916744  0.01438800    -0.20300
C241        C  0.50006008  0.58501104  0.95121570    -0.15700
C242        C  0.49998437  0.90263322  0.95121234    -0.15700
C243        C  0.50273995  0.90299870  0.04962299    -0.15700
C244        C  0.50007979  0.58489865  0.04971224    -0.15700
H245        H  0.46095008  0.54538863  0.90087624     0.17200
H246        H  0.46054069  0.94259209  0.90102823     0.17200
H247        H  0.45900140  0.54533369  0.09956368     0.17200
H248        H  0.45936943  0.94244322  0.09892431     0.17200
H249        H  0.53289908  0.68021259  0.97349028     0.15500
H250        H  0.53299336  0.68013575  0.02755782     0.15500
H251        H  0.53257466  0.80715524  0.97327749     0.15500
H252        H  0.53450364  0.80744778  0.02734347     0.15500
H253        H  0.51559152  0.99483988  0.97762581     0.28800
H254        H  0.51942706  0.99518599  0.02353170     0.28800
O255        O  0.04907437  0.69392295  0.12634390    -0.69200
O256        O  0.04447105  0.79576743  0.18093478    -0.69400
O257        O  0.04502007  0.69251221  0.18117298    -0.69300
O258        O  0.04836716  0.79366924  0.12610273    -0.69300
O259        O  0.46460821  0.79384870  0.12444189    -0.69200
O260        O  0.46070316  0.69303908  0.17944205    -0.69200
O261        O  0.46147085  0.79593751  0.17912968    -0.69200
O262        O  0.46383834  0.69419174  0.12468659    -0.69400
V263        V  0.04509125  0.74396600  0.15391910     1.35200
V264        V  0.46429978  0.74423207  0.15223390     1.35200
C265        C  0.50627598  0.67876004  0.11518193     0.80100
C266        C  0.50312094  0.81466056  0.18804269     0.80100
C267        C  0.50206123  0.67378655  0.18843464     0.80000
C268        C  0.50728913  0.80877990  0.11499791     0.79900
C269        C  0.50057709  0.94699889  0.23242365     0.89100
C270        C  0.04696585  0.95296459  0.25159746    -0.51100
C271        C  0.04471969  0.49703884  0.26675026     0.12000
C272        C  0.49743548  0.53076290  0.26062145     0.23000
C273        C  0.45316644  0.95226301  0.25087216    -0.51900
C274        C  0.44932876  0.49711620  0.26547872     0.12100
C275        C  0.50015839  0.99476721  0.21449236    -0.51400
C276        C  0.49787992  0.53924309  0.22954953     0.12700
H277        H  0.07831859  0.92570870  0.25233312     0.17200
H278        H  0.49771032  0.56624636  0.27267103     0.02900
H279        H  0.42242430  0.92437810  0.25176943     0.17500
H280        H  0.50042736  0.99388238  0.19233871     0.17300
O281        O  0.46327475  0.69367286  0.87572343    -0.69200
O282        O  0.46206900  0.79508279  0.82103921    -0.69400
O283        O  0.46261661  0.69210245  0.82095645    -0.69300
O284        O  0.46266715  0.79326996  0.87576237    -0.69300
O285        O  0.04939194  0.79370277  0.87471141    -0.69200
O286        O  0.04585284  0.69219853  0.81983930    -0.69200
O287        O  0.04566074  0.79534141  0.81987458    -0.69200
O288        O  0.04972539  0.69395764  0.87472165    -0.69400
V289        V  0.46430709  0.74352358  0.84806654     1.35200
V290        V  0.04602228  0.74378594  0.84701013     1.35200
C291        C  0.50552448  0.67879228  0.88577243     0.80100
C292        C  0.00306176  0.81428076  0.81239054     0.80100
C293        C  0.00327859  0.67326548  0.81227664     0.80000
C294        C  0.50473283  0.80849997  0.88586085     0.79900
N295        N  0.49650072  0.57310310  0.54088469    -0.34000
N296        N  0.07775259  0.57579925  0.50013868    -0.54600
N297        N  0.49788572  0.57216529  0.45958981    -0.34000
N298        N  0.41654734  0.57575340  0.49989599    -0.54600
C299        C  0.03908791  0.58194256  0.55684080     0.29600
C300        C  0.45467489  0.58521237  0.55593667     0.29600
C301        C  0.03886703  0.58416849  0.44365516     0.29600
C302        C  0.45647785  0.58369407  0.44404707     0.29600
C303        C  0.10737595  0.56599740  0.52221744     0.38200
C304        C  0.10733103  0.56686192  0.47796571     0.38200
C305        C  0.38711690  0.56526751  0.52187425     0.38200
C306        C  0.38790028  0.56467286  0.47769069     0.38200
C307        C  0.02362442  0.59725968  0.58264542    -0.19300
C308        C  0.47021623  0.60391115  0.58107646    -0.19300
C309        C  0.02307183  0.60067441  0.41810614    -0.19300
C310        C  0.47270152  0.60151054  0.41885518    -0.19300
C311        C  0.15674292  0.55225700  0.51408355    -0.20300
C312        C  0.15671048  0.55279824  0.48595727    -0.20300
C313        C  0.33870837  0.54865325  0.51366174    -0.20300
C314        C  0.33920445  0.54827551  0.48550856    -0.20300
C315        C  0.09054971  0.57123572  0.54947604    -0.15700
C316        C  0.40348323  0.57289775  0.54900086    -0.15700
C317        C  0.40508571  0.57170687  0.45068470    -0.15700
C318        C  0.09037547  0.57309230  0.45077355    -0.15700
H319        H  0.04798684  0.60615632  0.59995658     0.17200
H320        H  0.44582622  0.61543429  0.59788649     0.17200
H321        H  0.04724103  0.61055066  0.40090685     0.17200
H322        H  0.44878229  0.61237986  0.40170037     0.17200
H323        H  0.18928839  0.54289001  0.52703094     0.15500
H324        H  0.18921636  0.54393893  0.47292098     0.15500
H325        H  0.30653139  0.53811047  0.52655578     0.15500
H326        H  0.30747553  0.53737795  0.47234932     0.15500
H327        H  0.49616349  0.55135341  0.52325234     0.28800
H328        H  0.49701596  0.55106208  0.47744094     0.28800
C329        C  0.50232762  0.85933489  0.20486545    -0.10700
C330        C  0.50147932  0.89894212  0.21716923    -0.12200
C331        C  0.50059672  0.62924110  0.20543022    -0.10700
C332        C  0.49925072  0.58894831  0.21709895    -0.12200
C333        C  0.50576122  0.64730007  0.90936547    -0.10700
C334        C  0.50415545  0.62127816  0.92941180    -0.12200
C335        C  0.50321081  0.86626841  0.92941050    -0.10700
C336        C  0.50460591  0.84010553  0.90941191    -0.12200
C337        C  0.50698853  0.86691082  0.07154343    -0.10700
C338        C  0.50845154  0.84065471  0.09152630    -0.12200
C339        C  0.50487924  0.62089244  0.07164384    -0.10700
C340        C  0.50688060  0.64696906  0.09167936    -0.12200
C341        C  0.37002723  0.56430248  0.42817365    -0.10700
C342        C  0.34540912  0.55756455  0.40768928    -0.12200
C343        C  0.12615560  0.56589763  0.42845195    -0.10700
C344        C  0.15119500  0.55891802  0.40808850    -0.12200
C345        C  0.36551195  0.51854565  0.29487368    -0.10700
C346        C  0.40471813  0.51100814  0.28189442    -0.12200
C347        C  0.08969078  0.51154587  0.28277395    -0.10700
C348        C  0.12927987  0.51947507  0.29539142    -0.12200
C349        C  0.15167295  0.55716733  0.59208045    -0.10700
C350        C  0.12663592  0.56386344  0.57166774    -0.12200
C351        C  0.34414542  0.55839833  0.59204993    -0.10700
C352        C  0.36813217  0.56537623  0.57137736    -0.12200
C353        C  0.00195131  0.62873544  0.79521538    -0.10700
C354        C  0.00050813  0.58861594  0.78334275    -0.12200
C355        C  0.00182413  0.85889518  0.79539923    -0.10700
C356        C  0.00121563  0.89843042  0.78293760    -0.12200
C357        C  0.09098703  0.51092092  0.71800943    -0.10700
C358        C  0.13038203  0.51856869  0.70520104    -0.12200
C359        C  0.40462195  0.51188996  0.71948945    -0.10700
C360        C  0.36569239  0.51956527  0.70620128    -0.12200
C361        C  0.99814598  0.44736470  0.76726109     0.89100
C362        C  0.95089256  0.45367414  0.74870809    -0.51100
C363        C  0.95339066  0.99674859  0.73462846     0.12000
C364        C  0.00138408  0.03046892  0.73976657     0.23000
C365        C  0.54417726  0.45201303  0.74883024    -0.51900
C366        C  0.54923585  0.99715038  0.73541623     0.12100
C367        C  0.99870042  0.49512098  0.78521221    -0.51400
C368        C  0.50092394  0.03877689  0.77151397     0.12700
H369        H  0.91953085  0.42645524  0.74777543     0.17200
H370        H  0.00145655  0.06619002  0.72792645     0.02900
H371        H  0.57489167  0.42415297  0.74751181     0.17500
H372        H  0.99911443  0.49417586  0.80736405     0.17300
O373        O  0.69596828  0.50314574  0.62285546    -0.69200
O374        O  0.80062273  0.48704068  0.67665080    -0.69400
O375        O  0.69478006  0.48603703  0.67684393    -0.69300
O376        O  0.79794564  0.50422335  0.62255698    -0.69300
O377        O  0.80142533  0.08747566  0.63106123    -0.69200
O378        O  0.69739749  0.06877000  0.68493589    -0.69200
O379        O  0.80343523  0.06890239  0.68508161    -0.69200
O380        O  0.69939100  0.08713979  0.63084475    -0.69400
V381        V  0.74734259  0.49659835  0.65020930     1.35200
V382        V  0.75039453  0.07641519  0.65815232     1.35200
C383        C  0.68441770  0.05014983  0.61666783     0.80100
C384        C  0.82314288  0.02582572  0.68905413     0.80100
C385        C  0.67822743  0.02558192  0.68910606     0.80000
C386        C  0.81641464  0.05069905  0.61678524     0.79900
O387        O  0.79845797  0.50290093  0.37786292    -0.69200
O388        O  0.69447355  0.48508854  0.32381662    -0.69400
O389        O  0.80020384  0.48649093  0.32369284    -0.69300
O390        O  0.69654114  0.50134843  0.37797981    -0.69300
O391        O  0.69805826  0.08637733  0.37003232    -0.69200
O392        O  0.80262869  0.06722597  0.31647258    -0.69200
O393        O  0.69653670  0.06812176  0.31602856    -0.69200
O394        O  0.79997503  0.08553856  0.37051126    -0.69400
V395        V  0.74739647  0.49543862  0.35036318     1.35200
V396        V  0.74929461  0.07514581  0.34307828     1.35200
C397        C  0.81433069  0.04854179  0.38483232     0.80100
C398        C  0.67670780  0.02519128  0.31188319     0.80100
C399        C  0.82191711  0.02399772  0.31251110     0.80000
C400        C  0.68260645  0.04957275  0.38414690     0.79900
N401        N  0.99944327  0.49348060  0.95907705    -0.34000
N402        N  0.98904261  0.07239701  0.00030396    -0.54600
N403        N  0.00146152  0.49309903  0.04174124    -0.34000
N404        N  0.99319342  0.41532757  0.00033327    -0.54600
C405        C  0.98592946  0.03468943  0.94315590     0.29600
C406        C  0.98648861  0.45332597  0.94355590     0.29600
C407        C  0.98623909  0.03475151  0.05760676     0.29600
C408        C  0.98832358  0.45281223  0.05710017     0.29600
C409        C  0.99335797  0.10249392  0.97819389     0.38200
C410        C  0.99311035  0.10252382  0.02242068     0.38200
C411        C  0.99904489  0.38571286  0.97815311     0.38200
C412        C  0.00021447  0.38554327  0.02236177     0.38200
C413        C  0.97221774  0.01862348  0.91719119    -0.19300
C414        C  0.97094946  0.46956276  0.91790436    -0.19300
C415        C  0.97398379  0.01879042  0.08378046    -0.19300
C416        C  0.97196308  0.46880075  0.08262558    -0.19300
C417        C  0.99869917  0.15233359  0.98626472    -0.20300
C418        C  0.99851744  0.15235665  0.01433700    -0.20300
C419        C  0.00891415  0.33645115  0.98609482    -0.20300
C420        C  0.00967584  0.33634894  0.01419695    -0.20300
C421        C  0.99035708  0.08567896  0.95090686    -0.15700
C422        C  0.99267345  0.40237548  0.95101392    -0.15700
C423        C  0.99476240  0.40196410  0.04957902    -0.15700
C424        C  0.99020051  0.08575205  0.04972820    -0.15700
H425        H  0.96120611  0.04162336  0.89989522     0.17200
H426        H  0.95916952  0.44663947  0.90071918     0.17200
H427        H  0.96407277  0.04184740  0.10122403     0.17200
H428        H  0.95967886  0.44570781  0.09962792     0.17200
H429        H  0.00209507  0.18521028  0.97330451     0.15500
H430        H  0.00180814  0.18525885  0.02729013     0.15500
H431        H  0.01450284  0.30399563  0.97303738     0.15500
H432        H  0.01589950  0.30379835  0.02711165     0.15500
H433        H  0.01863679  0.49215787  0.97765365     0.28800
H434        H  0.02119574  0.49196028  0.02332455     0.28800
O435        O  0.53758970  0.19446731  0.12486347    -0.69200
O436        O  0.53843140  0.29609162  0.17950941    -0.69400
O437        O  0.53916452  0.19294388  0.17966508    -0.69300
O438        O  0.53686294  0.29415607  0.12477773    -0.69300
O439        O  0.95330090  0.29409868  0.12598660    -0.69200
O440        O  0.95406185  0.19279770  0.18098886    -0.69200
O441        O  0.95466388  0.29592065  0.18085690    -0.69200
O442        O  0.95242820  0.19452083  0.12611575    -0.69400
V443        V  0.53639350  0.24439381  0.15252401     1.35200
V444        V  0.95525990  0.24433220  0.15378459     1.35200
C445        C  0.99402403  0.17951253  0.11544851     0.80100
C446        C  0.99699896  0.31446809  0.18897425     0.80100
C447        C  0.99620428  0.17337893  0.18886890     0.80000
C448        C  0.99526102  0.30891210  0.11558922     0.79900
C449        C  0.99745158  0.44690942  0.23360020     0.89100
C450        C  0.54389962  0.45258963  0.25111320    -0.51100
C451        C  0.54733184  0.99736327  0.26563041     0.12000
C452        C  0.99942847  0.03045259  0.26136501     0.23000
C453        C  0.94984763  0.45347881  0.25180539    -0.51900
C454        C  0.95202775  0.99607230  0.26672159     0.12100
C455        C  0.99837187  0.49443094  0.21545059    -0.51400
C456        C  0.99853189  0.03872679  0.23025737     0.12700
H457        H  0.57482326  0.42488725  0.25201884     0.17200
H458        H  0.99942346  0.06603505  0.27332842     0.02900
H459        H  0.91850201  0.42623977  0.25268423     0.17500
H460        H  0.99921427  0.49317061  0.19330845     0.17300
O461        O  0.95282149  0.19450881  0.87446360    -0.69200
O462        O  0.95514484  0.29540828  0.81942854    -0.69400
O463        O  0.95564676  0.19217762  0.81965633    -0.69300
O464        O  0.95255784  0.29412957  0.87425421    -0.69300
O465        O  0.53632744  0.29388585  0.87632840    -0.69200
O466        O  0.54033022  0.19273441  0.82146352    -0.69200
O467        O  0.53951628  0.29584448  0.82159143    -0.69200
O468        O  0.53712318  0.19426618  0.87623511    -0.69400
V469        V  0.95569464  0.24406304  0.84665919     1.35200
V470        V  0.53671501  0.24416392  0.84857489     1.35200
C471        C  0.99439573  0.17947593  0.88520313     0.80100
C472        C  0.49781926  0.31469402  0.81276467     0.80100
C473        C  0.49893185  0.17358868  0.81243093     0.80000
C474        C  0.99408477  0.30904453  0.88513194     0.79900
N475        N  0.00055546  0.07223197  0.54137835    -0.34000
N476        N  0.58122264  0.07478622  0.50038483    -0.54600
N477        N  0.99911966  0.07203210  0.45942586    -0.34000
N478        N  0.91918925  0.07486822  0.50069501    -0.54600
C479        C  0.54288910  0.08424704  0.55624544     0.29600
C480        C  0.95901042  0.08321642  0.55694024     0.29600
C481        C  0.54191579  0.08509040  0.44447997     0.29600
C482        C  0.95696781  0.08172506  0.44401302     0.29600
C483        C  0.61043033  0.06370931  0.52240608     0.38200
C484        C  0.61000988  0.06421841  0.47819173     0.38200
C485        C  0.88983080  0.06634706  0.52297228     0.38200
C486        C  0.88905462  0.06564402  0.47874661     0.38200
C487        C  0.52744608  0.10371335  0.58120283    -0.19300
C488        C  0.97515154  0.10048593  0.58227655    -0.19300
C489        C  0.52612746  0.10383464  0.41938065    -0.19300
C490        C  0.97214722  0.09776133  0.41829202    -0.19300
C491        C  0.65883458  0.04710065  0.51424504    -0.20300
C492        C  0.65856725  0.04741904  0.48607595    -0.20300
C493        C  0.84006147  0.05315212  0.51519556    -0.20300
C494        C  0.83957156  0.05268972  0.48706658    -0.20300
C495        C  0.59400886  0.07131383  0.54951516    -0.15700
C496        C  0.90733309  0.07246004  0.55005410    -0.15700
C497        C  0.90559966  0.07088026  0.45145954    -0.15700
C498        C  0.59310769  0.07222246  0.45117308    -0.15700
H499        H  0.55187378  0.11518286  0.59803924     0.17200
H500        H  0.95119258  0.11125643  0.59940098     0.17200
H501        H  0.55033685  0.11500218  0.40242898     0.17200
H502        H  0.94757263  0.10727825  0.40115962     0.17200
H503        H  0.69091612  0.03627808  0.52718167     0.15500
H504        H  0.69041114  0.03687066  0.47295339     0.15500
H505        H  0.80757774  0.04494067  0.52837134     0.15500
H506        H  0.80663235  0.04405282  0.47424694     0.15500
H507        H  0.99992261  0.05191237  0.52327701     0.28800
H508        H  0.99924887  0.05274898  0.47784455     0.28800
C509        C  0.99758767  0.35899879  0.20603358    -0.10700
C510        C  0.99759317  0.39856569  0.21846433    -0.12200
C511        C  0.99656293  0.12864864  0.20583917    -0.10700
C512        C  0.99738461  0.08838950  0.21762535    -0.12200
C513        C  0.99316489  0.14811683  0.90890636    -0.10700
C514        C  0.99162775  0.12213984  0.92901224    -0.12200
C515        C  0.99262163  0.36606869  0.92905947    -0.10700
C516        C  0.99299116  0.34029366  0.90886836    -0.12200
C517        C  0.99503192  0.36556169  0.07149214    -0.10700
C518        C  0.99509369  0.33995044  0.09175208    -0.12200
C519        C  0.99137454  0.12234877  0.07156374    -0.10700
C520        C  0.99284200  0.14831395  0.09167868    -0.12200
C521        C  0.86945311  0.06331756  0.42933834    -0.10700
C522        C  0.84468350  0.05637721  0.40887105    -0.12200
C523        C  0.62806732  0.06473028  0.42864448    -0.10700
C524        C  0.65217068  0.05781780  0.40801917    -0.12200
C525        C  0.86771730  0.01752628  0.29581655    -0.10700
C526        C  0.90718284  0.00988403  0.28304102    -0.12200
C527        C  0.59185418  0.01183361  0.28200330    -0.10700
C528        C  0.63118265  0.01940773  0.29491278    -0.12200
C529        C  0.65388278  0.05790795  0.59265496    -0.10700
C530        C  0.62944768  0.06421665  0.57200054    -0.12200
C531        C  0.84719009  0.05892906  0.59298425    -0.10700
C532        C  0.87190510  0.06570611  0.57251983    -0.12200
C533        C  0.50011754  0.12880918  0.79562432    -0.10700
C534        C  0.50058902  0.08840349  0.78405934    -0.12200
C535        C  0.49834823  0.35942108  0.79593243    -0.10700
C536        C  0.49826837  0.39898269  0.78354481    -0.12200
C537        C  0.59383649  0.01147396  0.71912797    -0.10700
C538        C  0.63298384  0.01923988  0.70615717    -0.12200
C539        C  0.90830124  0.01135116  0.71863991    -0.10700
C540        C  0.86879954  0.01950477  0.70593519    -0.12200
C541        C  0.00116973  0.94658136  0.76761113     0.89100
C542        C  0.95394637  0.95271088  0.74900124    -0.51100
C543        C  0.95042593  0.49768236  0.73432425     0.12000
C544        C  0.99855135  0.53128920  0.73943790     0.23000
C545        C  0.54911549  0.95332856  0.74993100    -0.51900
C546        C  0.54486795  0.49599013  0.73445028     0.12100
C547        C  0.00138830  0.99437644  0.78555421    -0.51400
C548        C  0.50027292  0.53873978  0.77141354     0.12700
H549        H  0.92259812  0.92547398  0.74810770     0.17200
H550        H  0.99876660  0.56702927  0.72761343     0.02900
H551        H  0.58062538  0.92625986  0.74908379     0.17500
H552        H  0.00118545  0.99344791  0.80770643     0.17300
O553        O  0.69941426  0.00641837  0.62297202    -0.69200
O554        O  0.80364989  0.98840118  0.67681139    -0.69400
O555        O  0.69794519  0.98815664  0.67697204    -0.69300
O556        O  0.80136386  0.00686145  0.62285341    -0.69300
O557        O  0.79717524  0.58505188  0.63010711    -0.69200
O558        O  0.69392928  0.56676637  0.68445280    -0.69200
O559        O  0.80006389  0.56776691  0.68424385    -0.69200
O560        O  0.69514282  0.58398461  0.63040689    -0.69400
V561        V  0.75058357  0.99894477  0.65038773     1.35200
V562        V  0.74661631  0.57423253  0.65748693     1.35200
C563        C  0.68026156  0.54661823  0.61652757     0.80100
C564        C  0.82006103  0.52492820  0.68851292     0.80100
C565        C  0.67476581  0.52359933  0.68870818     0.80000
C566        C  0.81243862  0.54803910  0.61608380     0.79900
O567        O  0.79906521  0.00487319  0.37855383    -0.69200
O568        O  0.69596755  0.98751750  0.32401752    -0.69400
O569        O  0.80180804  0.98666133  0.32455032    -0.69300
O570        O  0.69720082  0.00566459  0.37796607    -0.69300
O571        O  0.69540270  0.58230976  0.37085007    -0.69200
O572        O  0.79904629  0.56729992  0.31636244    -0.69200
O573        O  0.69308785  0.56595942  0.31666316    -0.69200
O574        O  0.79732244  0.58380520  0.37053717    -0.69400
V575        V  0.74853492  0.99764963  0.35077424     1.35200
V576        V  0.74622391  0.57317710  0.34341899     1.35200
C577        C  0.81292389  0.54671252  0.38438793     0.80100
C578        C  0.67424345  0.52277185  0.31213013     0.80100
C579        C  0.81915192  0.52460471  0.31185815     0.80000
C580        C  0.68105869  0.54469964  0.38468404     0.79900
N581        N  0.99789759  0.99443006  0.95883060    -0.34000
N582        N  0.00386070  0.57137217  0.00048797    -0.54600
N583        N  0.99724428  0.99437931  0.04183438    -0.34000
N584        N  0.00031670  0.91612003  0.00033061    -0.54600
C585        C  0.99226753  0.53503657  0.94359597     0.29600
C586        C  0.99160089  0.95296772  0.94315636     0.29600
C587        C  0.99347465  0.53452023  0.05721693     0.29600
C588        C  0.99174739  0.95296426  0.05762814     0.29600
C589        C  0.01325839  0.60032235  0.97838767     0.38200
C590        C  0.01375454  0.60013755  0.02261213     0.38200
C591        C  0.00836174  0.88676436  0.97822765     0.38200
C592        C  0.00792767  0.88667740  0.02245464     0.38200
C593        C  0.97460096  0.52109088  0.91792674    -0.19300
C594        C  0.97576539  0.96712633  0.91719217    -0.19300
C595        C  0.97519667  0.52034513  0.08269815    -0.19300
C596        C  0.97742186  0.96729005  0.08379243    -0.19300
C597        C  0.02840398  0.64819996  0.98648006    -0.20300
C598        C  0.02870741  0.64808402  0.01458014    -0.20300
C599        C  0.01993857  0.83794347  0.98631093    -0.20300
C600        C  0.01962952  0.83787989  0.01438125    -0.20300
C601        C  0.00512733  0.58474406  0.95118160    -0.15700
C602        C  0.00276833  0.90296008  0.95094482    -0.15700
C603        C  0.00226586  0.90283616  0.04974599    -0.15700
C604        C  0.00594408  0.58436399  0.04978696    -0.15700
H605        H  0.96610649  0.54540285  0.90076436     0.17200
H606        H  0.96798430  0.94293410  0.89988761     0.17200
H607        H  0.96585550  0.54454518  0.09977169     0.17200
H608        H  0.97065034  0.94322885  0.10125706     0.17200
H609        H  0.03762707  0.67998437  0.97351887     0.15500
H610        H  0.03819390  0.67975473  0.02758293     0.15500
H611        H  0.02736122  0.80569580  0.97335855     0.15500
H612        H  0.02684616  0.80558341  0.02733952     0.15500
H613        H  0.01569581  0.99562008  0.97776867     0.28800
H614        H  0.01369781  0.99545744  0.02260536     0.28800
O615        O  0.54794121  0.69364007  0.12591271    -0.69200
O616        O  0.54549164  0.79530818  0.18058359    -0.69400
O617        O  0.54472038  0.69226088  0.18076468    -0.69300
O618        O  0.54870372  0.79343323  0.12580646    -0.69300
O619        O  0.96429142  0.79321914  0.12456105    -0.69200
O620        O  0.96104324  0.69203735  0.17938598    -0.69200
O621        O  0.96048557  0.79518109  0.17931047    -0.69200
O622        O  0.96501532  0.69356272  0.12460628    -0.69400
V623        V  0.54508669  0.74365858  0.15353913     1.35200
V624        V  0.96434208  0.74350463  0.15229860     1.35200
C625        C  0.00785277  0.67863390  0.11531506     0.80100
C626        C  0.00178617  0.81458160  0.18832469     0.80100
C627        C  0.00250762  0.67324053  0.18852781     0.80000
C628        C  0.00686767  0.80846137  0.11513828     0.79900
C629        C  0.99945035  0.94686002  0.23323362     0.89100
C630        C  0.54740416  0.95342735  0.25122183    -0.51100
C631        C  0.54477795  0.49625748  0.26575120     0.12000
C632        C  0.99733997  0.53122855  0.26106018     0.23000
C633        C  0.95271796  0.95222370  0.25218635    -0.51900
C634        C  0.94914458  0.49768950  0.26599967     0.12100
C635        C  0.99858365  0.99485524  0.21546077    -0.51400
C636        C  0.99836659  0.53867167  0.22992353     0.12700
H637        H  0.57890170  0.92636686  0.25229554     0.17200
H638        H  0.99734049  0.56713078  0.27274155     0.02900
H639        H  0.92175050  0.92459687  0.25320431     0.17500
H640        H  0.99794048  0.99417300  0.19330811     0.17300
O641        O  0.96565173  0.69375473  0.87616858    -0.69200
O642        O  0.96166724  0.79517711  0.82139622    -0.69400
O643        O  0.96185951  0.69216136  0.82135446    -0.69300
O644        O  0.96531226  0.79338481  0.87613845    -0.69300
O645        O  0.54680566  0.79362497  0.87565151    -0.69200
O646        O  0.54666884  0.69247223  0.82066312    -0.69200
O647        O  0.54612715  0.79565540  0.82088274    -0.69200
O648        O  0.54741227  0.69398309  0.87550239    -0.69400
V649        V  0.96526181  0.74360512  0.84844507     1.35200
V650        V  0.54513186  0.74391966  0.84786878     1.35200
C651        C  0.00838545  0.67883598  0.88564272     0.80100
C652        C  0.50387545  0.81448376  0.81281291     0.80100
C653        C  0.50458137  0.67330648  0.81255032     0.80000
C654        C  0.00791158  0.80863573  0.88558110     0.79900
N655        N  0.99709104  0.57282280  0.54121004    -0.34000
N656        N  0.57776221  0.57127434  0.50058941    -0.54600
N657        N  0.99709279  0.57400377  0.45920957    -0.34000
N658        N  0.91634566  0.57467868  0.50024040    -0.54600
C659        C  0.53848372  0.58294190  0.55634672     0.29600
C660        C  0.95511940  0.58164975  0.55686618     0.29600
C661        C  0.54029103  0.58150295  0.44440962     0.29600
C662        C  0.95494322  0.58318093  0.44372765     0.29600
C663        C  0.60587073  0.55945695  0.52287771     0.38200
C664        C  0.60665202  0.55896620  0.47868828     0.38200
C665        C  0.88683858  0.56486231  0.52231549     0.38200
C666        C  0.88695128  0.56484467  0.47809236     0.38200
C667        C  0.52325116  0.60246642  0.58133898    -0.19300
C668        C  0.97062704  0.59709178  0.58265836    -0.19300
C669        C  0.52573541  0.60015568  0.41909046    -0.19300
C670        C  0.97005597  0.60003372  0.41814811    -0.19300
C671        C  0.65369468  0.54062152  0.51517922    -0.20300
C672        C  0.65419460  0.54031916  0.48702741    -0.20300
C673        C  0.83766847  0.55031273  0.51420017    -0.20300
C674        C  0.83775887  0.55024026  0.48607894    -0.20300
C675        C  0.58918750  0.56820176  0.54982836    -0.15700
C676        C  0.90370489  0.57051480  0.54954583    -0.15700
C677        C  0.90383250  0.57082499  0.45091406    -0.15700
C678        C  0.59080507  0.56694437  0.45150422    -0.15700
H679        H  0.54772490  0.61268404  0.59839182     0.17200
H680        H  0.94630899  0.60582284  0.59997995     0.17200
H681        H  0.55065787  0.60980678  0.40215474     0.17200
H682        H  0.94546058  0.60932587  0.40098767     0.17200
H683        H  0.68489277  0.52864607  0.52841630     0.15500
H684        H  0.68584188  0.52805461  0.47421364     0.15500
H685        H  0.80526324  0.54070667  0.52715156     0.15500
H686        H  0.80540871  0.54065132  0.47304176     0.15500
H687        H  0.99714401  0.55408315  0.52263766     0.28800
H688        H  0.99735887  0.55416193  0.47745212     0.28800
C689        C  0.00035449  0.85932624  0.20525141    -0.10700
C690        C  0.99963201  0.89884462  0.21775006    -0.12200
C691        C  0.00132411  0.62837026  0.20534755    -0.10700
C692        C  0.99995027  0.58806014  0.21704362    -0.12200
C693        C  0.00978281  0.64732542  0.90930012    -0.10700
C694        C  0.00885164  0.62121151  0.92937107    -0.12200
C695        C  0.00716110  0.86654971  0.92914703    -0.10700
C696        C  0.00888440  0.84033462  0.90914300    -0.12200
C697        C  0.00629833  0.86626017  0.07150248    -0.10700
C698        C  0.00782396  0.84002524  0.09151244    -0.12200
C699        C  0.00911408  0.62077603  0.07166349    -0.10700
C700        C  0.00955358  0.64694226  0.09172632    -0.12200
C701        C  0.86834893  0.56221649  0.42864471    -0.10700
C702        C  0.84367026  0.55464687  0.40823553    -0.12200
C703        C  0.62622735  0.55827202  0.42927704    -0.10700
C704        C  0.65065370  0.55151283  0.40872825    -0.12200
C705        C  0.86467264  0.51947631  0.29483907    -0.10700
C706        C  0.90412763  0.51208342  0.28202292    -0.12200
C707        C  0.58952116  0.50959938  0.28218997    -0.10700
C708        C  0.62880523  0.51675075  0.29517352    -0.12200
C709        C  0.64893347  0.55378594  0.59283507    -0.10700
C710        C  0.62412056  0.56029922  0.57237640    -0.12200
C711        C  0.84299428  0.55594235  0.59215968    -0.10700
C712        C  0.86782679  0.56285735  0.57174183    -0.12200
C713        C  0.50424215  0.62854166  0.79570732    -0.10700
C714        C  0.50273794  0.58823351  0.78405868    -0.12200
C715        C  0.50331812  0.85934334  0.79609549    -0.10700
C716        C  0.50265900  0.89902271  0.78383078    -0.12200
C717        C  0.58960722  0.50983001  0.71815686    -0.10700
C718        C  0.62908773  0.51742454  0.70544460    -0.12200
C719        C  0.90549239  0.51197252  0.71811926    -0.10700
C720        C  0.86592931  0.51942198  0.70533160    -0.12200
loop_ 
_geom_bond_atom_site_label_1 
_geom_bond_atom_site_label_2 
_geom_bond_distance 
_geom_bond_site_symmetry_2 
_ccdc_geom_bond_type 
C1            C2   1.532       .  S
C1            C7   1.542       .  S
C1          C365   1.531       .  S
C1          C536   1.479       .  S
C2            H9   1.087       .  S
C2          C183   1.364       .  D
C3            C4   1.550   1_565  S
C3          C182   1.364       .  D
C3          C179   1.457   1_565  S
C4          C368   1.540       .  S
C4          C366   1.550   1_545  S
C4           H10   1.111       .  S
C5          C361   1.532   1_455  S
C5           H11   1.087       .  S
C5          C186   1.364       .  D
C6          C364   1.552   1_565  S
C6          C185   1.363       .  D
C6          C177   1.457   1_565  S
C7           H12   1.086       .  S
C7          C548   1.371       .  D
C8          C364   1.540       .  S
C8          C547   1.371   1_545  D
C8          C174   1.456       .  S
O13          V21   1.897       .  S
O13         C203   1.262       .  A
O14          V21   1.909       .  S
O14         C204   1.265       .  A
O15          V21   1.907       .  S
O15         C205   1.265       .  A
O16          V21   1.895       .  S
O16         C206   1.262       .  A
O17          V22   1.896       .  S
O17          C26   1.262       .  A
O18          V22   1.911       .  S
O18          C25   1.265       .  A
O19          V22   1.912       .  S
O19          C24   1.266       .  A
O20          V22   1.899       .  S
O20          C23   1.263       .  A
V21         V202   2.090       .  T
V22         V201   2.090   1_545  T
C23         O193   1.262       .  A
C23         C169   1.433       .  S
C24         O194   1.265   1_545  A
C24         C180   1.451       .  S
C25         O195   1.265   1_545  A
C25         C178   1.451       .  S
C26         O196   1.262       .  A
C26         C171   1.429       .  S
O27          V35   1.893       .  S
O27         C217   1.261       .  A
O28          V35   1.906       .  S
O28         C218   1.264       .  A
O29          V35   1.908       .  S
O29         C219   1.265       .  A
O30          V35   1.898       .  S
O30         C220   1.262       .  A
O31          V36   1.897       .  S
O31          C40   1.262       .  A
O32          V36   1.910       .  S
O32          C39   1.265       .  A
O33          V36   1.910       .  S
O33          C38   1.265       .  A
O34          V36   1.896       .  S
O34          C37   1.262       .  A
V35         V216   2.090       .  T
V36         V215   2.090   1_545  T
C37         O207   1.262       .  A
C37         C162   1.429       .  S
C38         O208   1.265   1_545  A
C38         C168   1.450       .  S
C39         O209   1.265   1_545  A
C39         C165   1.449       .  S
C40         O210   1.262       .  A
C40         C164   1.431       .  S
N41          C46   1.350       .  A
N41         C225   1.350       .  A
N41          H73   1.038       .  S
N42          C49   1.349   1_554  A
N42          C50   1.349       .  A
N43          C48   1.350       .  A
N43         C227   1.350       .  A
N43          H74   1.038       .  S
N44          C51   1.349   1_554  A
N44          C52   1.349       .  A
C45         N221   1.350   1_545  A
C45          C53   1.388       .  A
C45          C61   1.408       .  A
C46          C62   1.408       .  A
C46          C54   1.388       .  A
C47         N223   1.350   1_545  A
C47          C55   1.387       .  A
C47          C64   1.407       .  A
C48          C63   1.407       .  A
C48          C56   1.388       .  A
C49          C61   1.410       .  A
C49          C57   1.387       .  A
C50          C64   1.409       .  A
C50          C58   1.387       .  A
C51          C59   1.387       .  A
C51          C62   1.409       .  A
C52          C60   1.387       .  A
C52          C63   1.409       .  A
C53         C234   1.370   1_545  A
C53          H65   1.082       .  S
C54         C233   1.370       .  A
C54          H66   1.082       .  S
C55         C236   1.371   1_545  A
C55          H67   1.082       .  S
C56         C235   1.371       .  A
C56          H68   1.082       .  S
C57          C58   1.377   1_556  A
C57          H69   1.083       .  S
C58          H70   1.083       .  S
C59          C60   1.377   1_556  A
C59          H71   1.083       .  S
C60          H72   1.083       .  S
C61         C154   1.442       .  S
C62         C155   1.442       .  S
C63         C157   1.441       .  S
C64         C159   1.443       .  S
O75          V83   1.898       .  S
O75         C445   1.262   1_455  A
O76          V83   1.909       .  S
O76         C446   1.265   1_455  A
O77          V83   1.907       .  S
O77         C447   1.264   1_455  A
O78          V83   1.895       .  S
O78         C448   1.261   1_455  A
O79          V84   1.894       .  S
O79          C88   1.261       .  A
O80          V84   1.907       .  S
O80          C87   1.264       .  A
O81          V84   1.906       .  S
O81          C86   1.264       .  A
O82          V84   1.895       .  S
O82          C85   1.261       .  A
V83         V444   2.090   1_455  T
V84         V443   2.090       .  T
C85         O435   1.262       .  A
C85         C160   1.428       .  S
C86         O436   1.264       .  A
C86         C149   1.445       .  S
C87         O437   1.265       .  A
C87         C151   1.447       .  S
C88         O438   1.262       .  A
C88         C158   1.426       .  S
C89          C95   1.542       .  S
C89          C93   1.531       .  S
C89         C450   1.531       .  S
C89         C150   1.479       .  S
C90         C449   1.531   1_455  S
C90          H97   1.087       .  S
C90         C271   1.363       .  D
C91         C452   1.551   1_465  S
C91         C270   1.363       .  D
C91         C167   1.456   1_565  S
C92          C96   1.540       .  S
C92          C94   1.550   1_545  S
C92         C451   1.550   1_545  S
C92          H98   1.111       .  S
C93          H99   1.087       .  S
C93         C274   1.363       .  D
C94         C273   1.363       .  D
C94         C166   1.455   1_565  S
C95         H100   1.086       .  S
C95         C276   1.371       .  D
C96         C275   1.371   1_545  D
C96         C152   1.454       .  S
O101        V109   1.895       .  S
O101        C111   1.261       .  A
O102        V109   1.905       .  S
O102        C472   1.264       .  A
O103        V109   1.906       .  S
O103        C473   1.264       .  A
O104        V109   1.895       .  S
O104        C114   1.261       .  A
O105        V110   1.895       .  S
O105        C474   1.261   1_455  A
O106        V110   1.908       .  S
O106        C113   1.265   1_455  A
O107        V110   1.909       .  S
O107        C112   1.265   1_455  A
O108        V110   1.898       .  S
O108        C471   1.262   1_455  A
V109        V470   2.091       .  T
V110        V469   2.090   1_455  T
C111        O468   1.261       .  A
C111        C153   1.426       .  S
C112        O462   1.264       .  A
C112        C175   1.448       .  S
C113        O463   1.265       .  A
C113        C173   1.449       .  S
C114        O465   1.261       .  A
C114        C156   1.426       .  S
N115        C120   1.349       .  A
N115        C479   1.350       .  A
N115        H147   1.040       .  S
N116        C123   1.351       .  A
N116        C124   1.350       .  A
N117        C122   1.349       .  A
N117        C481   1.349       .  A
N117        H148   1.039       .  S
N118        C125   1.348       .  A
N118        C126   1.349       .  A
C119        N475   1.351       .  A
C119        C127   1.387       .  A
C119        C135   1.407       .  A
C120        C136   1.406       .  A
C120        C128   1.387       .  A
C121        N477   1.351   1_455  A
C121        C129   1.388       .  A
C121        C138   1.408       .  A
C122        C137   1.405       .  A
C122        C130   1.387       .  A
C123        C135   1.412       .  A
C123        C131   1.387       .  A
C124        C138   1.412       .  A
C124        C132   1.387       .  A
C125        C133   1.387       .  A
C125        C136   1.410       .  A
C126        C134   1.387       .  A
C126        C137   1.410       .  A
C127        C488   1.371   1_455  A
C127        H139   1.082       .  S
C128        C487   1.372       .  A
C128        H140   1.082       .  S
C129        C490   1.371   1_455  A
C129        H141   1.082       .  S
C130        C489   1.372       .  A
C130        H142   1.082       .  S
C131        C132   1.379       .  A
C131        H143   1.082       .  S
C132        H144   1.083       .  S
C133        C134   1.380       .  A
C133        H145   1.082       .  S
C134        H146   1.082       .  S
C135        C170   1.447       .  S
C136        C172   1.443       .  S
C137        C161   1.443       .  S
C138        C163   1.446       .  S
C149        C150   1.212       .  T
C151        C152   1.213       .  T
C153        C154   1.201       .  T
C155        C156   1.201       .  T
C157        C158   1.201       .  T
C159        C160   1.202       .  T
C161        C162   1.203       .  T
C163        C164   1.204       .  T
C165        C166   1.214       .  T
C167        C168   1.215       .  T
C169        C170   1.205       .  T
C171        C172   1.203       .  T
C173        C174   1.214   1_655  T
C175        C176   1.214       .  T
C176        C361   1.482       .  S
C177        C178   1.216       .  T
C179        C180   1.215       .  T
C181        C182   1.532       .  S
C181        C187   1.542       .  S
C181        C545   1.531       .  S
C181        C716   1.479       .  S
C182        H189   1.087       .  S
C183        C184   1.551       .  S
C183        C359   1.457       .  S
C184        C548   1.540       .  S
C184        C546   1.549       .  S
C184        H190   1.111       .  S
C185        C541   1.531       .  S
C185        H191   1.087       .  S
C186        C544   1.550   1_455  S
C186        C357   1.456       .  S
C187        H192   1.086       .  S
C187        C368   1.371   1_565  D
C188        C544   1.540       .  S
C188        C367   1.371       .  D
C188        C354   1.454   1_655  S
O193        V201   1.897   1_545  S
O194        V201   1.909       .  S
O195        V201   1.909       .  S
O196        V201   1.896   1_545  S
O197        V202   1.897       .  S
O197        C206   1.262       .  A
O198        V202   1.910       .  S
O198        C205   1.265       .  A
O199        V202   1.913       .  S
O199        C204   1.266       .  A
O200        V202   1.898       .  S
O200        C203   1.262       .  A
C203        C349   1.431       .  S
C204        C360   1.452       .  S
C205        C358   1.450       .  S
C206        C351   1.429       .  S
O207        V215   1.896   1_545  S
O208        V215   1.908       .  S
O209        V215   1.909       .  S
O210        V215   1.897   1_545  S
O211        V216   1.898       .  S
O211        C220   1.262       .  A
O212        V216   1.910       .  S
O212        C219   1.265       .  A
O213        V216   1.911       .  S
O213        C218   1.265       .  A
O214        V216   1.896       .  S
O214        C217   1.262       .  A
C217        C342   1.427       .  S
C218        C348   1.449       .  S
C219        C345   1.450       .  S
C220        C344   1.432       .  S
N221        C226   1.350       .  A
N221        H253   1.038       .  S
N222        C229   1.349   1_554  A
N222        C230   1.350       .  A
N223        C228   1.350       .  A
N223        H254   1.039       .  S
N224        C231   1.349   1_554  A
N224        C232   1.349       .  A
C225        C233   1.388       .  A
C225        C241   1.408       .  A
C226        C242   1.409       .  A
C226        C234   1.388       .  A
C227        C235   1.388       .  A
C227        C244   1.408       .  A
C228        C243   1.407       .  A
C228        C236   1.388       .  A
C229        C241   1.410       .  A
C229        C237   1.387       .  A
C230        C244   1.410       .  A
C230        C238   1.386       .  A
C231        C239   1.387       .  A
C231        C242   1.410       .  A
C232        C240   1.387       .  A
C232        C243   1.409       .  A
C233        H245   1.082       .  S
C234        H246   1.082       .  S
C235        H247   1.082       .  S
C236        H248   1.082       .  S
C237        C238   1.377   1_556  A
C237        H249   1.082       .  S
C238        H250   1.082       .  S
C239        C240   1.377   1_556  A
C239        H251   1.083       .  S
C240        H252   1.083       .  S
C241        C334   1.442       .  S
C242        C335   1.442       .  S
C243        C337   1.443       .  S
C244        C339   1.443       .  S
O255        V263   1.897       .  S
O255        C625   1.262       .  A
O256        V263   1.908       .  S
O256        C626   1.265       .  A
O257        V263   1.910       .  S
O257        C627   1.265       .  A
O258        V263   1.899       .  S
O258        C628   1.262       .  A
O259        V264   1.894       .  S
O259        C268   1.261       .  A
O260        V264   1.906       .  S
O260        C267   1.264       .  A
O261        V264   1.904       .  S
O261        C266   1.264       .  A
O262        V264   1.894       .  S
O262        C265   1.261       .  A
V263        V624   2.090   1_455  T
V264        V623   2.090       .  T
C265        O615   1.262       .  A
C265        C340   1.428       .  S
C266        O616   1.265       .  A
C266        C329   1.444       .  S
C267        O617   1.265       .  A
C267        C331   1.446       .  S
C268        O618   1.262       .  A
C268        C338   1.428       .  S
C269        C630   1.530       .  S
C269        C275   1.542       .  S
C269        C273   1.531       .  S
C269        C330   1.478       .  S
C270        C629   1.531   1_455  S
C270        H277   1.087       .  S
C271        C632   1.549   1_455  S
C271        C347   1.455       .  S
C272        C631   1.549       .  S
C272        C276   1.540       .  S
C272        C274   1.550       .  S
C272        H278   1.111       .  S
C273        H279   1.087       .  S
C274        C346   1.455       .  S
C275        H280   1.086       .  S
C276        C332   1.453       .  S
O281        V289   1.894       .  S
O281        C291   1.261       .  A
O282        V289   1.905       .  S
O282        C652   1.264       .  A
O283        V289   1.905       .  S
O283        C653   1.264       .  A
O284        V289   1.894       .  S
O284        C294   1.261       .  A
O285        V290   1.899       .  S
O285        C654   1.262       .  A
O286        V290   1.910       .  S
O286        C293   1.265       .  A
O287        V290   1.908       .  S
O287        C292   1.265       .  A
O288        V290   1.898       .  S
O288        C651   1.262       .  A
V289        V650   2.091       .  T
V290        V649   2.090   1_455  T
C291        O648   1.261       .  A
C291        C333   1.427       .  S
C292        O642   1.265   1_455  A
C292        C355   1.447       .  S
C293        O643   1.264   1_455  A
C293        C353   1.448       .  S
C294        O645   1.262       .  A
C294        C336   1.427       .  S
N295        C300   1.349       .  A
N295        C659   1.349       .  A
N295        H327   1.039       .  S
N296        C303   1.351       .  A
N296        C304   1.351       .  A
N297        C302   1.349       .  A
N297        C661   1.349       .  A
N297        H328   1.039       .  S
N298        C305   1.349       .  A
N298        C306   1.348       .  A
C299        N655   1.350   1_455  A
C299        C307   1.388       .  A
C299        C315   1.408       .  A
C300        C316   1.405       .  A
C300        C308   1.388       .  A
C301        N657   1.350   1_455  A
C301        C309   1.388       .  A
C301        C318   1.408       .  A
C302        C317   1.405       .  A
C302        C310   1.388       .  A
C303        C315   1.413       .  A
C303        C311   1.387       .  A
C304        C318   1.412       .  A
C304        C312   1.387       .  A
C305        C313   1.387       .  A
C305        C316   1.410       .  A
C306        C314   1.387       .  A
C306        C317   1.409       .  A
C307        C668   1.371   1_455  A
C307        H319   1.082       .  S
C308        C667   1.372       .  A
C308        H320   1.082       .  S
C309        C670   1.371   1_455  A
C309        H321   1.082       .  S
C310        C669   1.372       .  A
C310        H322   1.082       .  S
C311        C312   1.379       .  A
C311        H323   1.082       .  S
C312        H324   1.083       .  S
C313        C314   1.380       .  A
C313        H325   1.082       .  S
C314        H326   1.083       .  S
C315        C350   1.446       .  S
C316        C352   1.443       .  S
C317        C341   1.441       .  S
C318        C343   1.447       .  S
C329        C330   1.212       .  T
C331        C332   1.213       .  T
C333        C334   1.202       .  T
C335        C336   1.202       .  T
C337        C338   1.202       .  T
C339        C340   1.202       .  T
C341        C342   1.202       .  T
C343        C344   1.205       .  T
C345        C346   1.214       .  T
C347        C348   1.214       .  T
C349        C350   1.204       .  T
C351        C352   1.203       .  T
C353        C354   1.213       .  T
C355        C356   1.214       .  T
C356        C541   1.482       .  S
C357        C358   1.215       .  T
C359        C360   1.216       .  T
C361        C362   1.532       .  S
C361        C367   1.542       .  S
C362        H369   1.087       .  S
C362        C543   1.364       .  D
C363        C364   1.550   1_665  S
C363        C542   1.364       .  D
C363        C539   1.457   1_565  S
C364        H370   1.111       .  S
C365        H371   1.087       .  S
C365        C546   1.363       .  D
C366        C545   1.363       .  D
C366        C537   1.454   1_565  S
C367        H372   1.086       .  S
C368        C534   1.453       .  S
O373        V381   1.895       .  S
O373        C563   1.261       .  A
O374        V381   1.908       .  S
O374        C564   1.265       .  A
O375        V381   1.907       .  S
O375        C565   1.265       .  A
O376        V381   1.896       .  S
O376        C566   1.262       .  A
O377        V382   1.896       .  S
O377        C386   1.262       .  A
O378        V382   1.910       .  S
O378        C385   1.265       .  A
O379        V382   1.913       .  S
O379        C384   1.266       .  A
O380        V382   1.900       .  S
O380        C383   1.263       .  A
V381        V562   2.090       .  T
V382        V561   2.090   1_545  T
C383        O553   1.261       .  A
C383        C529   1.432       .  S
C384        O554   1.265   1_545  A
C384        C540   1.451       .  S
C385        O555   1.265   1_545  A
C385        C538   1.449       .  S
C386        O556   1.262       .  A
C386        C531   1.430       .  S
O387        V395   1.896       .  S
O387        C577   1.262       .  A
O388        V395   1.907       .  S
O388        C578   1.265       .  A
O389        V395   1.907       .  S
O389        C579   1.265       .  A
O390        V395   1.895       .  S
O390        C580   1.261       .  A
O391        V396   1.896       .  S
O391        C400   1.262       .  A
O392        V396   1.911       .  S
O392        C399   1.265       .  A
O393        V396   1.911       .  S
O393        C398   1.265       .  A
O394        V396   1.897       .  S
O394        C397   1.262       .  A
V395        V576   2.090       .  T
V396        V575   2.090   1_545  T
C397        O567   1.262       .  A
C397        C522   1.430       .  S
C398        O568   1.265   1_545  A
C398        C528   1.449       .  S
C399        O569   1.265   1_545  A
C399        C525   1.451       .  S
C400        O570   1.261       .  A
C400        C524   1.428       .  S
N401        C406   1.351       .  A
N401        C585   1.351       .  A
N401        H433   1.037   1_655  S
N402        C409   1.351   1_554  A
N402        C410   1.351       .  A
N403        C408   1.351   1_455  A
N403        C587   1.351   1_455  A
N403        H434   1.038       .  S
N404        C411   1.350   1_554  A
N404        C412   1.350   1_655  A
C405        N581   1.351   1_545  A
C405        C413   1.388       .  A
C405        C421   1.409       .  A
C406        C422   1.409       .  A
C406        C414   1.388       .  A
C407        N583   1.351   1_545  A
C407        C415   1.388       .  A
C407        C424   1.411       .  A
C408        C423   1.408       .  A
C408        C416   1.388       .  A
C409        C421   1.412       .  A
C409        C417   1.387       .  A
C410        C424   1.413       .  A
C410        C418   1.387       .  A
C411        C419   1.387   1_655  A
C411        C422   1.411       .  A
C412        C420   1.387       .  A
C412        C423   1.411   1_455  A
C413        C594   1.369   1_545  A
C413        H425   1.082       .  S
C414        C593   1.370       .  A
C414        H426   1.082       .  S
C415        C596   1.369   1_545  A
C415        H427   1.082       .  S
C416        C595   1.370       .  A
C416        H428   1.082       .  S
C417        C418   1.376   1_556  A
C417        H429   1.083   1_655  S
C418        H430   1.083   1_655  S
C419        C420   1.378   1_556  A
C419        H431   1.083       .  S
C420        H432   1.083       .  S
C421        C514   1.445       .  S
C422        C515   1.444       .  S
C423        C517   1.444       .  S
C424        C519   1.445       .  S
O435        V443   1.896       .  S
O436        V443   1.906       .  S
O437        V443   1.907       .  S
O438        V443   1.895       .  S
O439        V444   1.898       .  S
O439        C448   1.262       .  A
O440        V444   1.910       .  S
O440        C447   1.265       .  A
O441        V444   1.906       .  S
O441        C446   1.264       .  A
O442        V444   1.895       .  S
O442        C445   1.261       .  A
C445        C520   1.429       .  S
C446        C509   1.447       .  S
C447        C511   1.449       .  S
C448        C518   1.429       .  S
C449        C455   1.543       .  S
C449        C453   1.532       .  S
C449        C510   1.481       .  S
C450        H457   1.087       .  S
C450        C631   1.363       .  D
C451        C630   1.363       .  D
C451        C527   1.454   1_565  S
C452        C456   1.541       .  S
C452        C454   1.551   1_545  S
C452        H458   1.111       .  S
C453        H459   1.087       .  S
C453        C634   1.364       .  D
C454        C633   1.364       .  D
C454        C526   1.457   1_565  S
C455        H460   1.086       .  S
C455        C636   1.371       .  D
C456        C635   1.371   1_545  D
C456        C512   1.456       .  S
O461        V469   1.895       .  S
O461        C471   1.261       .  A
O462        V469   1.907       .  S
O463        V469   1.910       .  S
O464        V469   1.897       .  S
O464        C474   1.262       .  A
O465        V470   1.895       .  S
O466        V470   1.907       .  S
O466        C473   1.265       .  A
O467        V470   1.906       .  S
O467        C472   1.265       .  A
O468        V470   1.895       .  S
C471        C513   1.429       .  S
C472        C535   1.445       .  S
C473        C533   1.446       .  S
C474        C516   1.429       .  S
N475        C480   1.350   1_455  A
N475        H507   1.038   1_455  S
N476        C483   1.349       .  A
N476        C484   1.349       .  A
N477        C482   1.350       .  A
N477        H508   1.038       .  S
N478        C485   1.350       .  A
N478        C486   1.350       .  A
C479        C487   1.387       .  A
C479        C495   1.406       .  A
C480        C496   1.407       .  A
C480        C488   1.388       .  A
C481        C489   1.388       .  A
C481        C498   1.406       .  A
C482        C497   1.408       .  A
C482        C490   1.388       .  A
C483        C495   1.410       .  A
C483        C491   1.387       .  A
C484        C498   1.410       .  A
C484        C492   1.387       .  A
C485        C493   1.387       .  A
C485        C496   1.411       .  A
C486        C494   1.387       .  A
C486        C497   1.412       .  A
C487        H499   1.082       .  S
C488        H500   1.082       .  S
C489        H501   1.082       .  S
C490        H502   1.082       .  S
C491        C492   1.381       .  A
C491        H503   1.082       .  S
C492        H504   1.082       .  S
C493        C494   1.379       .  A
C493        H505   1.083       .  S
C494        H506   1.083       .  S
C495        C530   1.445       .  S
C496        C532   1.445       .  S
C497        C521   1.445       .  S
C498        C523   1.442       .  S
C509        C510   1.214       .  T
C511        C512   1.214       .  T
C513        C514   1.203       .  T
C515        C516   1.203       .  T
C517        C518   1.203       .  T
C519        C520   1.203       .  T
C521        C522   1.204       .  T
C523        C524   1.203       .  T
C525        C526   1.215       .  T
C527        C528   1.214       .  T
C529        C530   1.205       .  T
C531        C532   1.204       .  T
C533        C534   1.212       .  T
C535        C536   1.212       .  T
C537        C538   1.214       .  T
C539        C540   1.215       .  T
C541        C542   1.532   1_455  S
C541        C547   1.543       .  S
C542        H549   1.087       .  S
C543        C544   1.551       .  S
C543        C719   1.457       .  S
C544        H550   1.111       .  S
C545        H551   1.087       .  S
C546        C717   1.454       .  S
C547        H552   1.086       .  S
C548        C714   1.453       .  S
O553        V561   1.895   1_545  S
O554        V561   1.907       .  S
O555        V561   1.907       .  S
O556        V561   1.896   1_545  S
O557        V562   1.897       .  S
O557        C566   1.262       .  A
O558        V562   1.910       .  S
O558        C565   1.265       .  A
O559        V562   1.912       .  S
O559        C564   1.266       .  A
O560        V562   1.897       .  S
O560        C563   1.262       .  A
C563        C709   1.428       .  S
C564        C720   1.451       .  S
C565        C718   1.449       .  S
C566        C711   1.431       .  S
O567        V575   1.896   1_545  S
O568        V575   1.907       .  S
O569        V575   1.908       .  S
O570        V575   1.895   1_545  S
O571        V576   1.897       .  S
O571        C580   1.262       .  A
O572        V576   1.912       .  S
O572        C579   1.266       .  A
O573        V576   1.908       .  S
O573        C578   1.264       .  A
O574        V576   1.894       .  S
O574        C577   1.261       .  A
C577        C702   1.429       .  S
C578        C708   1.447       .  S
C579        C705   1.450       .  S
C580        C704   1.429       .  S
N581        C586   1.351       .  A
N581        H613   1.036   1_655  S
N582        C589   1.350   1_554  A
N582        C590   1.350       .  A
N583        C588   1.352       .  A
N583        H614   1.035   1_655  S
N584        C591   1.351   1_554  A
N584        C592   1.351       .  A
C585        C593   1.388       .  A
C585        C601   1.410   1_655  A
C586        C602   1.410   1_655  A
C586        C594   1.388       .  A
C587        C595   1.388       .  A
C587        C604   1.409   1_655  A
C588        C603   1.411   1_655  A
C588        C596   1.389       .  A
C589        C601   1.412       .  A
C589        C597   1.387       .  A
C590        C604   1.411       .  A
C590        C598   1.386       .  A
C591        C599   1.387       .  A
C591        C602   1.412       .  A
C592        C600   1.387       .  A
C592        C603   1.413       .  A
C593        H605   1.082       .  S
C594        H606   1.082       .  S
C595        H607   1.082       .  S
C596        H608   1.082       .  S
C597        C598   1.378   1_556  A
C597        H609   1.082       .  S
C598        H610   1.082       .  S
C599        C600   1.376   1_556  A
C599        H611   1.083       .  S
C600        H612   1.083       .  S
C601        C694   1.445       .  S
C602        C695   1.445       .  S
C603        C697   1.445       .  S
C604        C699   1.445       .  S
O615        V623   1.897       .  S
O616        V623   1.906       .  S
O617        V623   1.908       .  S
O618        V623   1.897       .  S
O619        V624   1.894       .  S
O619        C628   1.261   1_655  A
O620        V624   1.906       .  S
O620        C627   1.264   1_655  A
O621        V624   1.909       .  S
O621        C626   1.265   1_655  A
O622        V624   1.897       .  S
O622        C625   1.262   1_655  A
C625        C700   1.430       .  S
C626        C689   1.449       .  S
C627        C691   1.448       .  S
C628        C698   1.429       .  S
C629        C635   1.543       .  S
C629        C633   1.532       .  S
C629        C690   1.483       .  S
C630        H637   1.087       .  S
C631        C707   1.453       .  S
C632        C636   1.539       .  S
C632        C634   1.551       .  S
C632        H638   1.111       .  S
C633        H639   1.087       .  S
C634        C706   1.456       .  S
C635        H640   1.086       .  S
C636        C692   1.455       .  S
O641        V649   1.896       .  S
O641        C651   1.262   1_655  A
O642        V649   1.907       .  S
O643        V649   1.906       .  S
O644        V649   1.894       .  S
O644        C654   1.261   1_655  A
O645        V650   1.896       .  S
O646        V650   1.909       .  S
O646        C653   1.265       .  A
O647        V650   1.906       .  S
O647        C652   1.264       .  A
O648        V650   1.895       .  S
C651        C693   1.430       .  S
C652        C715   1.445       .  S
C653        C713   1.446       .  S
C654        C696   1.429       .  S
N655        C660   1.351       .  A
N655        H687   1.037       .  S
N656        C663   1.349       .  A
N656        C664   1.349       .  A
N657        C662   1.350       .  A
N657        H688   1.038       .  S
N658        C665   1.350       .  A
N658        C666   1.350       .  A
C659        C667   1.388       .  A
C659        C675   1.406       .  A
C660        C676   1.408       .  A
C660        C668   1.388       .  A
C661        C669   1.388       .  A
C661        C678   1.406       .  A
C662        C677   1.407       .  A
C662        C670   1.388       .  A
C663        C675   1.410       .  A
C663        C671   1.387       .  A
C664        C678   1.410       .  A
C664        C672   1.387       .  A
C665        C673   1.387       .  A
C665        C676   1.412       .  A
C666        C674   1.387       .  A
C666        C677   1.412       .  A
C667        H679   1.082       .  S
C668        H680   1.082       .  S
C669        H681   1.082       .  S
C670        H682   1.082       .  S
C671        C672   1.380       .  A
C671        H683   1.082       .  S
C672        H684   1.082       .  S
C673        C674   1.379       .  A
C673        H685   1.083       .  S
C674        H686   1.083       .  S
C675        C710   1.442       .  S
C676        C712   1.445       .  S
C677        C701   1.443       .  S
C678        C703   1.443       .  S
C689        C690   1.214   1_455  T
C691        C692   1.214   1_455  T
C693        C694   1.204       .  T
C695        C696   1.203       .  T
C697        C698   1.203       .  T
C699        C700   1.204       .  T
C701        C702   1.203       .  T
C703        C704   1.203       .  T
C705        C706   1.215       .  T
C707        C708   1.213       .  T
C709        C710   1.202       .  T
C711        C712   1.204       .  T
C713        C714   1.213       .  T
C715        C716   1.212       .  T
C717        C718   1.214       .  T
C719        C720   1.215       .  T
