geometry optimzed in LAMMPS
_audit_creation_date              2020-11-30 
_audit_creation_method            'lammps2cif' 
_symmetry_space_group_name_H-M    'P1' 
_symmetry_Int_Tables_number       1 
_symmetry_cell_setting            triclinic 
loop_ 
_symmetry_equiv_pos_as_xyz 
  x,y,z 
_cell_length_a                    36.68904178 
_cell_length_b                    36.30521735462516 
_cell_length_c                    36.412171597363596 
_cell_angle_alpha                 91.26108988162875 
_cell_angle_beta                  89.1455148470322 
_cell_angle_gamma                 90.2971202833318 
loop_ 
_atom_site_label 
_atom_site_type_symbol 
_atom_site_fract_x 
_atom_site_fract_y 
_atom_site_fract_z 
_atom_site_charge 
O1          O  0.56559857  0.95107405  0.48809613    -0.78900
O2          O  0.41929092  0.98187948  0.54297748    -0.78900
O3          O  0.51540241  0.94032178  0.55417410    -0.78900
O4          O  0.49389783  0.93389676  0.45307804    -0.78900
O5          O  0.47944735  0.97865671  0.58554111    -0.79000
O6          O  0.53102409  0.97057764  0.42576349    -0.78900
O7          O  0.43557898  0.93645794  0.50457984    -0.78900
O8          O  0.58805903  0.96311415  0.54237703    -0.78900
C9          C  0.59234399  0.94883994  0.51043407     1.10800
C10         C  0.41405480  0.95007107  0.52898105     1.10700
C11         C  0.49819538  0.94887504  0.58362453     1.10800
C12         C  0.50983698  0.94296846  0.42372555     1.10700
O13         O  0.51470812  0.04177427  0.45416384    -0.78900
O14         O  0.50229795  0.05030214  0.55639055    -0.79000
O15         O  0.56806777  0.02800120  0.51342662    -0.78900
O16         O  0.41667001  0.00555691  0.47718827    -0.78900
O17         O  0.43969103  0.05014013  0.51242194    -0.79000
O18         O  0.58664247  0.01504515  0.45715493    -0.78900
O19         O  0.47248171  0.00660460  0.42814910    -0.78900
O20         O  0.53928683  0.01087541  0.57870552    -0.78900
Co21       Co  0.53873383  0.99852533  0.47384727     1.51500
Co22       Co  0.46245667  0.01487945  0.54681201     1.51700
Co23       Co  0.54023329  0.98178122  0.53085672     1.51600
Co24       Co  0.45715525  0.97063871  0.46796562     1.51500
O25         O  0.49271899  0.99164792  0.50528430    -1.40800
C26         C  0.49344537  0.03494861  0.42765653     1.10700
C27         C  0.52221653  0.04095841  0.58248868     1.10800
C28         C  0.59302430  0.02996034  0.48836740     1.10700
C29         C  0.41585833  0.03819823  0.48995839     1.10700
O30         O  0.94852370  0.54738179  0.49652596    -0.78900
O31         O  0.96012992  0.44494837  0.48514689    -0.78900
O32         O  0.97215841  0.50481454  0.42988623    -0.78900
O33         O  0.99361995  0.46915054  0.58181345    -0.78900
O34         O  0.98621385  0.44808234  0.41284750    -0.79000
O35         O  0.94885023  0.50241759  0.55940152    -0.78900
O36         O  0.99663615  0.41977285  0.52519047    -0.78900
O37         O  0.98808606  0.57075194  0.45932909    -0.78900
C38         C  0.95819590  0.57381581  0.47655877     1.10800
C39         C  0.96787519  0.41839219  0.50563885     1.10700
C40         C  0.96994531  0.47795734  0.40632656     1.10800
C41         C  0.96124192  0.48102693  0.58353772     1.10700
O42         O  0.01443792  0.53703012  0.58015341    -0.78900
O43         O  0.04824235  0.48403713  0.43087376    -0.79000
O44         O  0.05742410  0.54984739  0.48322383    -0.78900
O45         O  0.06789400  0.45070807  0.50410243    -0.78900
O46         O  0.03203392  0.42203213  0.46641749    -0.79000
O47         O  0.01828058  0.57943265  0.51986214    -0.78900
O48         O  0.06125694  0.50154301  0.56407043    -0.78900
O49         O  0.03520948  0.53876855  0.41060449    -0.78900
Co50       Co  0.98295840  0.53901262  0.53666660     1.51500
Co51       Co  0.00188312  0.46736071  0.45982073     1.51700
Co52       Co  0.01727374  0.52453211  0.45814125     1.51600
Co53       Co  0.02969639  0.46254053  0.54116830     1.51500
O54         O  0.00790207  0.49883906  0.50598042    -1.40800
C55         C  0.04632157  0.52544491  0.58551440     1.10700
C56         C  0.05088764  0.50809306  0.40544027     1.10800
C57         C  0.04791947  0.57900185  0.50062592     1.10700
C58         C  0.06082802  0.42211342  0.48511883     1.10700
O59         O  0.44953716  0.50527071  0.05355640    -0.78900
O60         O  0.55298321  0.49203785  0.04736109    -0.78900
O61         O  0.49075375  0.43810377  0.03387898    -0.78900
O62         O  0.53337081  0.58770512  0.01019695    -0.78900
O63         O  0.54651566  0.41818058  0.02359260    -0.79000
O64         O  0.49747746  0.56560018  0.05409083    -0.78900
O65         O  0.58144723  0.53086475  0.01088461    -0.78900
O66         O  0.42691724  0.46740441  0.01367250    -0.78900
C67         C  0.42263187  0.48630740  0.04292812     1.10800
C68         C  0.58097600  0.51121681  0.03970884     1.10700
C69         C  0.51490166  0.41289629  0.03746071     1.10800
C70         C  0.51965150  0.58971490  0.04234156     1.10700
O71         O  0.46935811  0.58608232  0.98537469    -0.78900
O72         O  0.51683883  0.43535048  0.95869719    -0.79000
O73         O  0.45318099  0.48755847  0.94420460    -0.78900
O74         O  0.55570360  0.50740746  0.93840174    -0.78900
O75         O  0.57991009  0.47023788  0.97653014    -0.79000
O76         O  0.42480287  0.52757137  0.98132077    -0.78900
O77         O  0.50608971  0.56641835  0.94034572    -0.78900
O78         O  0.46123024  0.41534127  0.96948544    -0.78900
Co79       Co  0.46284839  0.54378266  0.01836169     1.51500
Co80       Co  0.53212294  0.46545567  0.00506506     1.51700
Co81       Co  0.47504573  0.46402522  0.98667371     1.51600
Co82       Co  0.54174348  0.54569277  0.97516309     1.51500
O83         O  0.50279555  0.51150345  0.99592647    -1.40800
C84         C  0.48206517  0.58860553  0.95301290     1.10700
C85         C  0.49285028  0.40936557  0.95615188     1.10800
C86         C  0.42572253  0.50779260  0.95178440     1.10700
C87         C  0.58300765  0.48885576  0.94752615     1.10700
C88         C  0.58788288  0.91227072  0.77584112     0.81400
N89         N  0.61327686  0.88556898  0.77105790    -0.76900
C90         C  0.61644307  0.86626613  0.73902865     0.83900
N91         N  0.59379953  0.87377350  0.71125856    -0.76800
C92         C  0.56789952  0.90028366  0.71489052     0.84000
N93         N  0.56507067  0.91975116  0.74750018    -0.78500
C94         C  0.75458248  0.70151760  0.75085307     0.81400
N95         N  0.72757077  0.72676015  0.75071509    -0.76900
C96         C  0.72796226  0.75472456  0.72671146     0.83900
N97         N  0.75604011  0.75739614  0.70220880    -0.76800
C98         C  0.78350145  0.73235725  0.70185942     0.84000
N99         N  0.78256729  0.70460647  0.72633425    -0.78500
C100        C  0.92593688  0.71391957  0.54095895     0.81400
N101        N  0.94841357  0.74389251  0.53712451    -0.76900
C102        C  0.94611748  0.77291299  0.56175819     0.83900
N103        N  0.92153084  0.77135918  0.58994840    -0.76800
C104        C  0.89957063  0.74175255  0.59400914     0.84000
N105        N  0.90201622  0.71344390  0.56958390    -0.78500
C106        C  0.78310868  0.56898782  0.91606512     0.81400
N107        N  0.78307798  0.59111620  0.88654842    -0.76900
C108        C  0.75364229  0.59315071  0.86487798     0.83900
N109        N  0.72366313  0.57276128  0.87274771    -0.76800
C110        C  0.72263072  0.55000105  0.90185737     0.84000
N111        N  0.75264814  0.54829959  0.92367765    -0.78500
C112        C  0.30062907  0.23462195  0.73635420     0.81400
N113        N  0.29746616  0.25968311  0.76428959    -0.76900
C114        C  0.27210951  0.28659093  0.76354319     0.83900
N115        N  0.24961600  0.28832014  0.73448416    -0.76800
C116        C  0.25250273  0.26350193  0.70624319     0.84000
N117        N  0.27806448  0.23667112  0.70735715    -0.78500
C118        C  0.28951464  0.44600647  0.90965281     0.81400
N119        N  0.25976985  0.44949866  0.93281276    -0.76900
C120        C  0.23084002  0.42556513  0.92927514     0.83900
N121        N  0.23245801  0.39842878  0.90307210    -0.76800
C122        C  0.26169406  0.39487804  0.88044990     0.84000
N123        N  0.28972268  0.41866913  0.88385458    -0.78500
C124        C  0.43663770  0.07392509  0.77954062     0.81400
N125        N  0.41075738  0.10005189  0.77623077    -0.76900
C126        C  0.40832553  0.11989093  0.74539173     0.83900
N127        N  0.43222856  0.11336072  0.71737296    -0.76800
C128        C  0.45858557  0.08742704  0.71968540     0.84000
N129        N  0.46059297  0.06750042  0.75101969    -0.78500
C130        C  0.09147006  0.22845663  0.57172100     0.81400
N131        N  0.11919200  0.23117721  0.59573925    -0.76900
C132        C  0.14044607  0.26159240  0.59770058     0.83900
N133        N  0.13380351  0.28997067  0.57545773    -0.76800
C134        C  0.10624775  0.28838642  0.55102931     0.84000
N135        N  0.08491145  0.25732869  0.54922101    -0.78500
O136        O  0.49960241  0.02528703  0.91968885    -0.78900
O137        O  0.46958112  0.98508045  0.06984281    -0.78900
O138        O  0.45199478  0.94331790  0.00096019    -0.78900
O139        O  0.45813533  0.04753754  0.01620270    -0.78900
O140        O  0.48975772  0.92018429  0.03898090    -0.79000
O141        O  0.49596293  0.07383906  0.97679512    -0.78900
O142        O  0.47998190  0.04195644  0.08923103    -0.78900
O143        O  0.45508419  0.98919596  0.94004665    -0.78900
C144        C  0.46792452  0.01162102  0.91680047     1.10800
C145        C  0.46517556  0.01075168  0.09447454     1.10700
C146        C  0.46039607  0.91718833  0.02141114     1.10800
C147        C  0.46664693  0.07469453  0.99629748     1.10700
O148        O  0.56637245  0.04735617  0.00126954    -0.78900
O149        O  0.56027337  0.94611919  0.01910814    -0.79000
O150        O  0.52409532  0.95946959  0.92111461    -0.78900
O151        O  0.54471590  0.01056154  0.07138394    -0.78900
O152        O  0.53311071  0.95475567  0.09076234    -0.79000
O153        O  0.56752430  0.99715745  0.94099968    -0.78900
O154        O  0.52731600  0.07363138  0.03779464    -0.78900
O155        O  0.52495699  0.91561858  0.98024232    -0.78900
Co156      Co  0.53215599  0.03358563  0.96210078     1.51500
Co157      Co  0.51714273  0.96839129  0.04282501     1.51700
Co158      Co  0.48923525  0.95440400  0.96302239     1.51600
Co159      Co  0.49928499  0.02583155  0.04207585     1.51500
O160        O  0.50954210  0.99543361  0.99560287    -1.40800
C161        C  0.55631295  0.07603049  0.01872145     1.10700
C162        C  0.55366681  0.91735550  0.99990040     1.10800
C163        C  0.55561593  0.97350124  0.91780242     1.10700
C164        C  0.54744305  0.98620098  0.09641386     1.10700
C165        C  0.24415463  0.78039273  0.81708477     0.81400
N166        N  0.21706047  0.75511909  0.81348301    -0.76900
C167        C  0.19206529  0.75780560  0.78667527     0.83900
N168        N  0.19445579  0.78611949  0.76316082    -0.76800
C169        C  0.22131150  0.81174507  0.76629335     0.84000
N170        N  0.24626472  0.80862909  0.79323539    -0.78500
C171        C  0.41215184  0.72406546  0.93533561     0.81400
N172        N  0.38204671  0.72842070  0.91466356    -0.76900
C173        C  0.36176326  0.75939573  0.91795354     0.83900
N174        N  0.37165180  0.78610380  0.94227561    -0.76800
C175        C  0.40140216  0.78266514  0.96352981     0.84000
N176        N  0.42193164  0.75145670  0.95972890    -0.78500
C177        C  0.21323977  0.95088470  0.60211915     0.81400
N178        N  0.24520772  0.94949205  0.58232519    -0.76900
C179        C  0.27354956  0.92830511  0.59356578     0.83900
N180        N  0.26933373  0.90858343  0.62461331    -0.76800
C181        C  0.23785183  0.90969814  0.64447419     0.84000
N182        N  0.21015359  0.93080798  0.63300714    -0.78500
C183        C  0.04558885  0.59798445  0.79010105     0.81400
N184        N  0.06828645  0.62732836  0.79349860    -0.76900
C185        C  0.08957819  0.63849764  0.76531965     0.83900
N186        N  0.08808465  0.62008224  0.73269938    -0.76800
C187        C  0.06570747  0.59049207  0.72812127     0.84000
N188        N  0.04450772  0.57915617  0.75709521    -0.78500
C189        C  0.72915601  0.29029409  0.24267818     0.81400
N190        N  0.75476456  0.29087749  0.26931955    -0.76900
C191        C  0.75558640  0.26414306  0.29476214     0.83900
N192        N  0.73040764  0.23675175  0.29338771    -0.76800
C193        C  0.70476740  0.23563491  0.26702536     0.84000
N194        N  0.70438110  0.26236517  0.24161125    -0.78500
C195        C  0.91154612  0.28398953  0.44339470     0.81400
N196        N  0.93141229  0.25225978  0.44321597    -0.76900
C197        C  0.92239095  0.22331939  0.42050017     0.83900
N198        N  0.89355236  0.22647881  0.39803050    -0.76800
C199        C  0.87367463  0.25773263  0.39775806     0.84000
N200        N  0.88287217  0.28630143  0.42034859    -0.78500
C201        C  0.77132410  0.41781159  0.07666983     0.81400
N202        N  0.76665102  0.39446450  0.10481739    -0.76900
C203        C  0.73523693  0.39342426  0.12444587     0.83900
N204        N  0.70768369  0.41604789  0.11581146    -0.76800
C205        C  0.71117501  0.44009831  0.08786630     0.84000
N206        N  0.74334421  0.44088850  0.06812886    -0.78500
C207        C  0.55764536  0.07870949  0.29170244     0.81400
N208        N  0.58152610  0.10727926  0.29125971    -0.76900
C209        C  0.60453568  0.11246873  0.26249972     0.83900
N210        N  0.60357960  0.08860421  0.23341650    -0.76800
C211        C  0.58001045  0.05957169  0.23281053     0.84000
N212        N  0.55697502  0.05473103  0.26222961    -0.78500
O213        O  0.91708539  0.50184167  0.97024011    -0.78900
O214        O  0.06688134  0.52716469  0.00933516    -0.78900
O215        O  0.00067412  0.54591805  0.05099657    -0.78900
O216        O  0.01262727  0.54076348  0.94967946    -0.78900
O217        O  0.03797053  0.50758120  0.07400768    -0.79000
O218        O  0.97295321  0.50426336  0.92161067    -0.78900
O219        O  0.08510325  0.51689592  0.95233037    -0.78900
O220        O  0.93936947  0.54580040  0.00658386    -0.78900
C221        C  0.91552347  0.53400336  0.98425900     1.10800
C222        C  0.09108331  0.53134234  0.98378847     1.10700
C223        C  0.01968400  0.53683275  0.07779707     1.10800
C224        C  0.99183286  0.53397724  0.92278597     1.10700
O225        O  0.99535480  0.43112996  0.94460215    -0.78900
O226        O  0.01683782  0.43685813  0.04841482    -0.79000
O227        O  0.91891733  0.47632245  0.03508929    -0.78900
O228        O  0.06726097  0.45166936  0.98256800    -0.78900
O229        O  0.08844781  0.46282499  0.03777949    -0.79000
O230        O  0.93672871  0.43214578  0.99589030    -0.78900
O231        O  0.03233572  0.47056334  0.92036044    -0.78900
O232        O  0.97844272  0.47368694  0.07861210    -0.78900
Co233      Co  0.95817591  0.46743220  0.96050480     1.51500
Co234      Co  0.04033043  0.47957986  0.02566461     1.51700
Co235      Co  0.96154296  0.51011035  0.04042007     1.51600
Co236      Co  0.03828208  0.49810276  0.96880389     1.51500
O237        O  0.99276329  0.48799005  0.99926165    -1.40800
C238        C  0.01356301  0.44130931  0.91689499     1.10700
C239        C  0.99850563  0.44483696  0.07736727     1.10800
C240        C  0.91425164  0.44495373  0.01979305     1.10700
C241        C  0.09362223  0.44979369  0.00548216     1.10700
C242        C  0.22236699  0.05478661  0.40846518     0.81400
N243        N  0.25289250  0.05175360  0.42939717    -0.76900
C244        C  0.28181068  0.07515080  0.42432223     0.83900
N245        N  0.27976885  0.10141066  0.39857040    -0.76800
C246        C  0.24975758  0.10491072  0.37781986     0.84000
N247        N  0.22134539  0.08157362  0.38299337    -0.78500
C248        C  0.24854883  0.21471689  0.26498128     0.81400
N249        N  0.27629067  0.21594201  0.23993685    -0.76900
C250        C  0.27881890  0.24356015  0.21553749     0.83900
N251        N  0.25320637  0.27037466  0.21660800    -0.76800
C252        C  0.22522179  0.26950155  0.24136658     0.84000
N253        N  0.22287441  0.24153101  0.26547833    -0.78500
C254        C  0.06858139  0.41168411  0.21211670     0.81400
N255        N  0.09496051  0.38566424  0.21280679    -0.76900
C256        C  0.11898056  0.38494584  0.24051525     0.83900
N257        N  0.11650393  0.41001538  0.26832956    -0.76800
C258        C  0.08994815  0.43589359  0.26916016     0.84000
N259        N  0.06594420  0.43679695  0.24070273    -0.78500
C260        C  0.44289145  0.27661616  0.07438715     0.81400
N261        N  0.41692898  0.27646601  0.10144464    -0.76900
C262        C  0.39548627  0.24655384  0.10680333     0.83900
N263        N  0.39989519  0.21648997  0.08471050    -0.76800
C264        C  0.42529235  0.21552582  0.05730387     0.84000
N265        N  0.44706396  0.24584283  0.05227551    -0.78500
C266        C  0.78064978  0.25785662  0.75702134     0.81400
N267        N  0.75306418  0.25936334  0.78236178    -0.76900
C268        C  0.72590434  0.23368536  0.78163099     0.83900
N269        N  0.72645516  0.20659829  0.75533729    -0.76800
C270        C  0.75368001  0.20481573  0.72979556     0.84000
N271        N  0.78059391  0.23055237  0.73094472    -0.78500
C272        C  0.92461344  0.41561498  0.72016330     0.81400
N273        N  0.89856075  0.38915725  0.72288565    -0.76900
C274        C  0.89473232  0.36893602  0.75351906     0.83900
N275        N  0.91746822  0.37529882  0.78199692    -0.76800
C276        C  0.94419030  0.40137792  0.78021681     0.84000
N277        N  0.94750041  0.42169591  0.74906863    -0.78500
C278        C  0.58255471  0.21170890  0.94305116     0.81400
N279        N  0.55990979  0.24153565  0.94710395    -0.76900
C280        C  0.56222878  0.26989023  0.92285779     0.83900
N281        N  0.58708215  0.26780134  0.89484760    -0.76800
C282        C  0.60954079  0.23858119  0.89056645     0.84000
N283        N  0.60702854  0.21094298  0.91473348    -0.78500
C284        C  0.72718488  0.06319652  0.56274789     0.81400
N285        N  0.75770020  0.04166965  0.55822396    -0.76900
C286        C  0.78638939  0.04578875  0.58181271     0.83900
N287        N  0.78401139  0.07144570  0.60929988    -0.76800
C288        C  0.75433560  0.09285556  0.61402805     0.84000
N289        N  0.72614282  0.08855903  0.59082084    -0.78500
C290        C  0.74703193  0.74649118  0.22081148     0.81400
N291        N  0.74604608  0.77116120  0.24928756    -0.76900
C292        C  0.76955891  0.76877297  0.27750441     0.83900
N293        N  0.79441689  0.74113540  0.27724069    -0.76800
C294        C  0.79564864  0.71587449  0.24908984     0.84000
N295        N  0.77186407  0.71886898  0.22103093    -0.78500
C296        C  0.73044276  0.91616428  0.43736430     0.81400
N297        N  0.75941377  0.93987325  0.44086835    -0.76900
C298        C  0.79000476  0.93529721  0.41918121     0.83900
N299        N  0.79110398  0.90663923  0.39458386    -0.76800
C300        C  0.76277386  0.88289725  0.39090340     0.84000
N301        N  0.73261091  0.88794435  0.41228842    -0.78500
C302        C  0.95124060  0.56903314  0.21674153     0.81400
N303        N  0.95364752  0.54467742  0.24465162    -0.76900
C304        C  0.93010638  0.54659761  0.27409901     0.83900
N305        N  0.90424471  0.57339250  0.27522818    -0.76800
C306        C  0.90140022  0.59754368  0.24752963     0.84000
N307        N  0.92490905  0.59507578  0.21864281    -0.78500
C308        C  0.60421209  0.78389165  0.06296052     0.81400
N309        N  0.63219770  0.78392850  0.08711301    -0.76900
C310        C  0.63809778  0.75432755  0.10831725     0.83900
N311        N  0.61564827  0.72481277  0.10574238    -0.76800
C312        C  0.58738137  0.72409262  0.08232188     0.84000
N313        N  0.58183302  0.75377356  0.06081899    -0.78500
C314        C  0.22365600  0.74673011  0.26708813     0.81400
N315        N  0.24994628  0.77312980  0.26857905    -0.76900
C316        C  0.27701922  0.77404283  0.24277261     0.83900
N317        N  0.27762341  0.74817265  0.21517617    -0.76800
C318        C  0.25151330  0.72145661  0.21344991     0.84000
N319        N  0.22473980  0.72099036  0.23957154    -0.78500
C320        C  0.43419085  0.91918199  0.28581804     0.81400
N321        N  0.43955783  0.94254196  0.25729172    -0.76900
C322        C  0.41886309  0.93949660  0.22641879     0.83900
N323        N  0.39300829  0.91253993  0.22451363    -0.76800
C324        C  0.38735175  0.88901942  0.25250831     0.84000
N325        N  0.40806946  0.89263588  0.28293018    -0.78500
C326        C  0.06173312  0.77332622  0.41127041     0.81400
N327        N  0.08723379  0.77264134  0.38389865    -0.76900
C328        C  0.11020586  0.74391945  0.37904998     0.83900
N329        N  0.10756471  0.71517510  0.40197594    -0.76800
C330        C  0.08234070  0.71469356  0.42967269     0.84000
N331        N  0.05929735  0.74407920  0.43430131    -0.78500
C332        C  0.28385514  0.55478005  0.07282019     0.81400
N333        N  0.28318838  0.58293093  0.09803052    -0.76900
C334        C  0.25429768  0.60584565  0.10124451     0.83900
N335        N  0.22562590  0.60070117  0.07873932    -0.76800
C336        C  0.22530995  0.57310036  0.05297275     0.84000
N337        N  0.25467604  0.55004052  0.05008709    -0.78500
O338        O  0.99439611  0.93607126  0.53129015    -0.78900
O339        O  0.03902514  0.08633220  0.50620173    -0.78900
O340        O  0.05583891  0.98847488  0.54472260    -0.78900
O341        O  0.95508403  0.00605727  0.55387809    -0.78900
O342        O  0.08474703  0.02792875  0.50898584    -0.79000
O343        O  0.93080850  0.96718904  0.51559228    -0.78900
O344        O  0.00351704  0.06659478  0.55140145    -0.78900
O345        O  0.04934870  0.91576171  0.51816603    -0.78900
C346        C  0.01819765  0.91027219  0.53266195     1.10800
C347        C  0.02603058  0.08982719  0.53845256     1.10700
C348        C  0.08342072  0.00863728  0.53810226     1.10800
C349        C  0.92800635  0.98633159  0.54493426     1.10700
O350        O  0.95366067  0.98775960  0.44443072    -0.78900
O351        O  0.05849572  0.00416207  0.43608090    -0.79000
O352        O  0.01761014  0.93535490  0.45496624    -0.78900
O353        O  0.97374361  0.08481364  0.48266857    -0.78900
O354        O  0.01036617  0.06381892  0.43787651    -0.79000
O355        O  0.96214147  0.91551249  0.46764664    -0.78900
O356        O  0.92684766  0.02712584  0.48299838    -0.78900
O357        O  0.08225061  0.96745733  0.47442246    -0.78900
Co358      Co  0.97720534  0.96344014  0.48551931     1.51500
Co359      Co  0.04573622  0.04311738  0.47255101     1.51700
Co360      Co  0.03437887  0.96353976  0.50193767     1.51600
Co361      Co  0.96734018  0.04382090  0.51738803     1.51500
O362        O  0.00608991  0.01040881  0.49432976    -1.40800
C363        C  0.92589097  0.00661728  0.45398029     1.10700
C364        C  0.08566185  0.98566686  0.44542081     1.10800
C365        C  0.99290939  0.91006490  0.45206962     1.10700
C366        C  0.98687194  0.08665594  0.45034543     1.10700
C367        C  0.05136049  0.84087602  0.40180803     0.24800
C368        C  0.03919176  0.80729884  0.41677013    -0.23300
C369        C  0.00632978  0.80748633  0.43737462     0.19700
C370        C  0.98832385  0.84086298  0.44581350     0.24800
C371        C  0.00293073  0.87456988  0.43374711    -0.23200
C372        C  0.03339001  0.87378155  0.40998674     0.19700
F373        F  0.04746489  0.90546511  0.39637538    -0.13200
F374        F  0.08218448  0.84280509  0.38091366    -0.15500
F375        F  0.95835360  0.84039616  0.46812199    -0.15600
F376        F  0.99204472  0.77561458  0.45009187    -0.13200
C377        C  0.22018511  0.67310119  0.17470084     0.24800
C378        C  0.25225241  0.69261187  0.18387981    -0.23300
C379        C  0.28500278  0.68342591  0.16520577     0.19700
C380        C  0.28570890  0.65514892  0.13845218     0.24800
C381        C  0.25367775  0.63572969  0.12949182    -0.23200
C382        C  0.22093972  0.64502831  0.14787019     0.19700
F383        F  0.18970150  0.62615945  0.14073737    -0.13200
F384        F  0.18779195  0.68125513  0.19141521    -0.15500
F385        F  0.31769890  0.64718066  0.12088089    -0.15600
F386        F  0.31663656  0.70117910  0.17328264    -0.13200
C387        C  0.17782954  0.71237917  0.30527106     0.24800
C388        C  0.19413607  0.74595512  0.29519150    -0.23300
C389        C  0.18197389  0.77884214  0.31229928     0.19700
C390        C  0.15452758  0.77816138  0.33924332     0.24800
C391        C  0.13859638  0.74457229  0.34977184    -0.23200
C392        C  0.15041832  0.71170246  0.33234564     0.19700
F393        F  0.13505906  0.67886944  0.34102818    -0.13200
F394        F  0.18892701  0.67999331  0.28956189    -0.15500
F395        F  0.14437600  0.81044642  0.35572456    -0.15600
F396        F  0.19621945  0.81189154  0.30259684    -0.13200
C397        C  0.34418402  0.84368999  0.28182641     0.24800
C398        C  0.35910144  0.85944256  0.24984134    -0.23300
C399        C  0.34684600  0.84632468  0.21537126     0.19700
C400        C  0.32051875  0.81832177  0.21303433     0.24800
C401        C  0.30558538  0.80294891  0.24503090    -0.23200
C402        C  0.31776378  0.81588352  0.27942284     0.19700
F403        F  0.30460380  0.80109964  0.31092718    -0.13200
F404        F  0.35455701  0.85551675  0.31570508    -0.15500
F405        F  0.30899065  0.80690004  0.17937817    -0.15600
F406        F  0.36065823  0.86006963  0.18370487    -0.13200
C407        C  0.85487014  0.95258832  0.40136583     0.24800
C408        C  0.82299917  0.95979869  0.42274240    -0.23300
C409        C  0.82412147  0.98947651  0.44828934     0.19700
C410        C  0.85701375  0.00810267  0.45550367     0.24800
C411        C  0.88980193  0.99731924  0.43751636    -0.23200
C412        C  0.88764867  0.97101129  0.40870754     0.19700
F413        F  0.91786484  0.96124239  0.38888572    -0.13200
F414        F  0.85521674  0.92648950  0.37409783    -0.15500
F415        F  0.85700082  0.03502269  0.48198807    -0.15600
F416        F  0.79374157  0.99982803  0.46736704    -0.13200
C417        C  0.71439665  0.71920294  0.16618705     0.24800
C418        C  0.72076391  0.74942135  0.19028554    -0.23300
C419        C  0.70096097  0.78221970  0.18538231     0.19700
C420        C  0.67504193  0.78434803  0.15774097     0.24800
C421        C  0.66814346  0.75379178  0.13464914    -0.23200
C422        C  0.68827700  0.72137938  0.13883629     0.19700
F423        F  0.68254658  0.69157847  0.11641303    -0.13200
F424        F  0.73249251  0.68696460  0.16961490    -0.15500
F425        F  0.65538180  0.81570621  0.15478065    -0.15600
F426        F  0.70624800  0.81231769  0.20748249    -0.13200
C427        C  0.83165469  0.66610324  0.21599504     0.24800
C428        C  0.82239031  0.68513839  0.24899275    -0.23300
C429        C  0.83881261  0.67419402  0.28180835     0.19700
C430        C  0.86382383  0.64515881  0.28154390     0.24800
C431        C  0.87330587  0.62667482  0.24849316    -0.23200
C432        C  0.85682588  0.63734496  0.21578890     0.19700
F433        F  0.86471951  0.61957071  0.18345385    -0.13200
F434        F  0.81700842  0.67565018  0.18354489    -0.15500
F435        F  0.87966935  0.63596488  0.31350860    -0.15600
F436        F  0.83057796  0.69131460  0.31437614    -0.13200
C437        C  0.73419114  0.81150230  0.31915919     0.24800
C438        C  0.76788902  0.79636048  0.30796381    -0.23300
C439        C  0.79983471  0.80894168  0.32510914     0.19700
C440        C  0.79819515  0.83682309  0.35225192     0.24800
C441        C  0.76448610  0.85240119  0.36311573    -0.23200
C442        C  0.73248298  0.83907674  0.34647615     0.19700
F443        F  0.69946845  0.85353070  0.35563052    -0.13200
F444        F  0.70267110  0.79946385  0.30378708    -0.15500
F445        F  0.82967590  0.84835720  0.36801206    -0.15600
F446        F  0.83285988  0.79522545  0.31470449    -0.13200
C447        C  0.82491395  0.99375794  0.55395994     0.24800
C448        C  0.82157160  0.02514735  0.57712572    -0.23300
C449        C  0.85313519  0.03767115  0.59573173     0.19700
C450        C  0.88721903  0.02211035  0.58823037     0.24800
C451        C  0.89126152  0.99376930  0.56162537    -0.23200
C452        C  0.85936101  0.97824077  0.54622887     0.19700
F453        F  0.86157106  0.94928096  0.52208482    -0.13200
F454        F  0.79502653  0.97837202  0.53828312    -0.15500
F455        F  0.91667493  0.03677059  0.60548757    -0.15600
F456        F  0.85192739  0.06648318  0.62010812    -0.13200
C457        C  0.78554428  0.16846728  0.67939925     0.24800
C458        C  0.75369318  0.17568193  0.70044490    -0.23300
C459        C  0.72183494  0.15513150  0.69257514     0.19700
C460        C  0.72186180  0.12844675  0.66423768     0.24800
C461        C  0.75370071  0.12147303  0.64344006    -0.23200
C462        C  0.78548136  0.14172736  0.65129696     0.19700
F463        F  0.81647208  0.13633076  0.63109044    -0.13200
F464        F  0.81711335  0.18696497  0.68602928    -0.15500
F465        F  0.69094868  0.10878838  0.65775482    -0.15600
F466        F  0.69038835  0.16096992  0.71190778    -0.13200
C467        C  0.65096643  0.20355972  0.84711975     0.24800
C468        C  0.63791099  0.23753665  0.86113112    -0.23300
C469        C  0.65349140  0.27032230  0.84788326     0.19700
C470        C  0.68214543  0.26911490  0.82215006     0.24800
C471        C  0.69565206  0.23513867  0.80886153    -0.23200
C472        C  0.67948798  0.20238188  0.82129614     0.19700
F473        F  0.69189634  0.16902326  0.80919364    -0.13200
F474        F  0.63592253  0.17130163  0.85807505    -0.15500
F475        F  0.69625687  0.30128616  0.80981084    -0.15600
F476        F  0.64187077  0.30370124  0.86052876    -0.13200
C477        C  0.82895743  0.29376081  0.72384178     0.24800
C478        C  0.81014934  0.28605497  0.75683124    -0.23300
C479        C  0.82013925  0.30534465  0.78920827     0.19700
C480        C  0.84809694  0.33184158  0.78843815     0.24800
C481        C  0.86630922  0.33985523  0.75523551    -0.23200
C482        C  0.85660969  0.32024135  0.72309603     0.19700
F483        F  0.87438516  0.32613228  0.69078305    -0.13200
F484        F  0.82019358  0.27624434  0.69181670    -0.15500
F485        F  0.85668549  0.35026768  0.82001780    -0.15600
F486        F  0.80328271  0.29827218  0.82176188    -0.13200
C487        C  0.35883504  0.21392061  0.15459399     0.24800
C488        C  0.36707616  0.24651809  0.13598187    -0.23300
C489        C  0.34686785  0.27843123  0.14439503     0.19700
C490        C  0.31833640  0.27756681  0.17024134     0.24800
C491        C  0.30953037  0.24473272  0.18850866    -0.23200
C492        C  0.33045785  0.21298683  0.18054673     0.19700
F493        F  0.32316204  0.18061225  0.19720318    -0.13200
F494        F  0.37855304  0.18285940  0.14797404    -0.15500
F495        F  0.29947572  0.30907375  0.17727184    -0.15600
F496        F  0.35379288  0.31025694  0.12664309    -0.13200
C497        C  0.18333513  0.36412893  0.23667049     0.24800
C498        C  0.14625961  0.35581942  0.24146643    -0.23300
C499        C  0.13518714  0.31941206  0.24741813     0.19700
C500        C  0.16097896  0.29131405  0.24830886     0.24800
C501        C  0.19811939  0.29928084  0.24239597    -0.23200
C502        C  0.20913740  0.33597411  0.23676716     0.19700
F503        F  0.24492514  0.34466341  0.23204939    -0.13200
F504        F  0.19441450  0.39936614  0.23122843    -0.15500
F505        F  0.14952860  0.25622794  0.25385184    -0.15600
F506        F  0.09936383  0.31122671  0.25270344    -0.13200
C507        C  0.15878080  0.03438777  0.39084955     0.24800
C508        C  0.18958578  0.03031283  0.41338402    -0.23300
C509        C  0.18747273  0.00398862  0.44127918     0.19700
C510        C  0.15443195  0.98570112  0.44901640     0.24800
C511        C  0.12252480  0.99394310  0.42963939    -0.23200
C512        C  0.12581887  0.01667067  0.39903094     0.19700
F513        F  0.09647641  0.02354542  0.37797582    -0.13200
F514        F  0.15964678  0.05677429  0.36147429    -0.15500
F515        F  0.15324090  0.96187653  0.47723068    -0.15600
F516        F  0.21676873  0.99701122  0.46231679    -0.13200
C517        C  0.21523728  0.17277535  0.30830985     0.24800
C518        C  0.24816479  0.18602054  0.29316229    -0.23300
C519        C  0.28130014  0.17231798  0.30594511     0.19700
C520        C  0.28166421  0.14624851  0.33340765     0.24800
C521        C  0.24885944  0.13289099  0.34877770    -0.23200
C522        C  0.21555734  0.14637035  0.33579292     0.19700
F523        F  0.18326125  0.13466337  0.35013638    -0.13200
F524        F  0.18270414  0.18492177  0.29617250    -0.15500
F525        F  0.31444712  0.13384313  0.34448616    -0.15600
F526        F  0.31370769  0.18487950  0.29261209    -0.13200
C527        C  0.96567749  0.38462442  0.84354560     0.24800
C528        C  0.96829846  0.40784418  0.81286106    -0.23300
C529        C  0.99290600  0.43782689  0.81492628     0.19700
C530        C  0.01128305  0.44631749  0.84773545     0.24800
C531        C  0.00473591  0.42574680  0.87965845    -0.23200
C532        C  0.98336699  0.39362258  0.87639198     0.19700
F533        F  0.97811404  0.37155022  0.90565288    -0.13200
F534        F  0.94493834  0.35355305  0.84257956    -0.15500
F535        F  0.03360791  0.47624158  0.84877140    -0.15600
F536        F  0.99807930  0.46013552  0.78587005    -0.13200
C537        C  0.02260818  0.53481931  0.14683865     0.24800
C538        C  0.01155811  0.55282331  0.11496223    -0.23300
C539        C  0.98593191  0.58134413  0.11881003     0.19700
C540        C  0.96792491  0.58798553  0.15230386     0.24800
C541        C  0.97528697  0.56645774  0.18321870    -0.23200
C542        C  0.00456233  0.54151068  0.18057130     0.19700
F543        F  0.01500241  0.52252888  0.21020406    -0.13200
F544        F  0.04919248  0.50893199  0.14502736    -0.15500
F545        F  0.94173036  0.61426898  0.15339147    -0.15600
F546        F  0.97610336  0.60121028  0.08940111    -0.13200
C547        C  0.99427302  0.44071335  0.14649663     0.24800
C548        C  0.00804251  0.42686232  0.11249103    -0.23300
C549        C  0.03735797  0.40199356  0.11307771     0.19700
C550        C  0.05560276  0.39549447  0.14572993     0.24800
C551        C  0.04490760  0.41341881  0.17902660    -0.23200
C552        C  0.01254575  0.43404831  0.17932449     0.19700
F553        F  0.99900170  0.44863179  0.21122120    -0.13200
F554        F  0.96454932  0.46284941  0.14788132    -0.15500
F555        F  0.08532257  0.37335960  0.14381221    -0.15600
F556        F  0.05053839  0.38604310  0.08154296    -0.13200
C557        C  0.19225237  0.54650437  0.99722464     0.24800
C558        C  0.19185410  0.56749771  0.03031792    -0.23300
C559        C  0.15828837  0.58272044  0.04249283     0.19700
C560        C  0.12595693  0.57419492  0.02442743     0.24800
C561        C  0.12581975  0.55011266  0.99368235    -0.23200
C562        C  0.15952825  0.53798848  0.97899062     0.19700
F563        F  0.16063264  0.51552975  0.94870538    -0.13200
F564        F  0.22412166  0.53348486  0.98291768    -0.15500
F565        F  0.09420483  0.58785146  0.03861461    -0.15600
F566        F  0.15590994  0.60424672  0.07337611    -0.13200
C567        C  0.83894489  0.40512697  0.07593525     0.24800
C568        C  0.80792681  0.41900567  0.05803230    -0.23300
C569        C  0.81300493  0.43447665  0.02320545     0.19700
C570        C  0.84823014  0.43820696  0.00803237     0.24800
C571        C  0.87902394  0.42703902  0.02750876    -0.23200
C572        C  0.87395630  0.40962155  0.06101026     0.19700
F573        F  0.90325341  0.39970251  0.08084295    -0.13200
F574        F  0.83609298  0.38942440  0.10934197    -0.15500
F575        F  0.85252772  0.45559146  0.97561514    -0.15600
F576        F  0.78416657  0.44709038  0.00431627    -0.13200
C577        C  0.92377916  0.15446209  0.41231788     0.24800
C578        C  0.94218607  0.18773719  0.42110567    -0.23300
C579        C  0.97887471  0.18613671  0.43169575     0.19700
C580        C  0.99577092  0.15201227  0.43601931     0.24800
C581        C  0.97626725  0.11905939  0.42999688    -0.23200
C582        C  0.94063732  0.12054808  0.41701790     0.19700
F583        F  0.92086041  0.08907177  0.41254683    -0.13200
F584        F  0.88831453  0.15434358  0.40228968    -0.15500
F585        F  0.02997716  0.15110520  0.44971087    -0.15600
F586        F  0.99795898  0.21745108  0.43930017    -0.13200
C587        C  0.64150582  0.16099082  0.23060721     0.24800
C588        C  0.63034779  0.14388667  0.26324997    -0.23300
C589        C  0.64362931  0.15754506  0.29700012     0.19700
C590        C  0.66735307  0.18762825  0.29813876     0.24800
C591        C  0.67847931  0.20476230  0.26556385    -0.23200
C592        C  0.66527622  0.19122090  0.23176148     0.19700
F593        F  0.67606772  0.20658101  0.19969171    -0.13200
F594        F  0.62894016  0.14897232  0.19756566    -0.15500
F595        F  0.67906585  0.20024788  0.33134223    -0.15600
F596        F  0.63442154  0.14129131  0.32905946    -0.13200
C597        C  0.69932502  0.32273046  0.19059403     0.24800
C598        C  0.72944427  0.31863082  0.21388997    -0.23300
C599        C  0.76042024  0.34113595  0.20843991     0.19700
C600        C  0.76172204  0.36593490  0.17978764     0.24800
C601        C  0.73219908  0.36902564  0.15601456    -0.23200
C602        C  0.70071790  0.34781279  0.16200084     0.19700
F603        F  0.67186290  0.35025470  0.13926418    -0.13200
F604        F  0.66850224  0.30237720  0.19514442    -0.15500
F605        F  0.79194399  0.38724265  0.17544171    -0.15600
F606        F  0.79008895  0.33867680  0.23007777    -0.13200
C607        C  0.80435033  0.29549372  0.33233204     0.24800
C608        C  0.78481055  0.26334529  0.32240261    -0.23300
C609        C  0.79402541  0.22984893  0.33867759     0.19700
C610        C  0.82232059  0.22839819  0.36364270     0.24800
C611        C  0.84233649  0.26026379  0.37296651    -0.23200
C612        C  0.83276206  0.29396953  0.35748345     0.19700
F613        F  0.85161730  0.32528088  0.36571632    -0.13200
F614        F  0.79601679  0.32849384  0.31785327    -0.15500
F615        F  0.82983003  0.19559892  0.37895420    -0.15600
F616        F  0.77643558  0.19795147  0.32978569    -0.13200
C617        C  0.03130271  0.60334362  0.85809744     0.24800
C618        C  0.02470146  0.58608578  0.82348977    -0.23300
C619        C  0.99943033  0.55677956  0.82218545     0.19700
C620        C  0.98454097  0.54262652  0.85475815     0.24800
C621        C  0.99571578  0.55656540  0.88933832    -0.23200
C622        C  0.01722454  0.58862879  0.89041200     0.19700
F623        F  0.02660430  0.60474159  0.92298275    -0.13200
F624        F  0.05302432  0.63356197  0.86147022    -0.15500
F625        F  0.96119325  0.51358714  0.85232165    -0.15600
F626        F  0.99002898  0.54083282  0.78960954    -0.13200
C627        C  0.11480672  0.98135267  0.59160420     0.24800
C628        C  0.11681992  0.00320362  0.56022446    -0.23300
C629        C  0.15167638  0.01300034  0.54654666     0.19700
C630        C  0.18328474  0.99720294  0.56078447     0.24800
C631        C  0.18081259  0.97199016  0.58965444    -0.23200
C632        C  0.14613864  0.96601379  0.60606804     0.19700
F633        F  0.14169892  0.94361241  0.63514354    -0.13200
F634        F  0.08210502  0.97285064  0.60732639    -0.15500
F635        F  0.21611059  0.00591991  0.54555290    -0.15600
F636        F  0.15523188  0.03614694  0.51794066    -0.13200
C637        C  0.12457332  0.69249515  0.74146087     0.24800
C638        C  0.11493392  0.66970234  0.77077578    -0.23300
C639        C  0.12993032  0.67685782  0.80557717     0.19700
C640        C  0.15425154  0.70600015  0.81090193     0.24800
C641        C  0.16434450  0.72857345  0.78149544    -0.23200
C642        C  0.14897151  0.72169318  0.74674290     0.19700
F643        F  0.15825892  0.74244390  0.71744225    -0.13200
F644        F  0.11017404  0.68679542  0.70766806    -0.15500
F645        F  0.16786169  0.71200894  0.84500966    -0.15600
F646        F  0.12210999  0.65490114  0.83437664    -0.13200
C647        C  0.25958435  0.85473546  0.72867818     0.24800
C648        C  0.22510099  0.84032560  0.73815323    -0.23300
C649        C  0.19454347  0.85103241  0.71812603     0.19700
C650        C  0.19860579  0.87402366  0.68814026     0.24800
C651        C  0.23329741  0.88719792  0.67765155    -0.23200
C652        C  0.26362669  0.87785082  0.69869317     0.19700
F653        F  0.29737170  0.89089918  0.69022067    -0.13200
F654        F  0.28979283  0.84522604  0.74728944    -0.15500
F655        F  0.16863966  0.88183435  0.66840676    -0.15600
F656        F  0.16058829  0.83881346  0.72716002    -0.13200
C657        C  0.29332219  0.80567459  0.85768544     0.24800
C658        C  0.27268079  0.77542255  0.84481920    -0.23300
C659        C  0.28051540  0.74001994  0.85773813     0.19700
C660        C  0.30909512  0.73490715  0.88194188     0.24800
C661        C  0.33032210  0.76500269  0.89393915    -0.23200
C662        C  0.32180000  0.80053103  0.88202273     0.19700
F663        F  0.34187014  0.83027470  0.89279408    -0.13200
F664        F  0.28601864  0.84036390  0.84678603    -0.15500
F665        F  0.31581307  0.70043481  0.89379461    -0.15600
F666        F  0.26138152  0.70995337  0.84611448    -0.13200
C667        C  0.60260256  0.88372722  0.03304095     0.24800
C668        C  0.57436035  0.88305362  0.00721156    -0.23300
C669        C  0.56116960  0.84845233  0.99482574     0.19700
C670        C  0.57213768  0.81598869  0.01157922     0.24800
C671        C  0.59708899  0.81720164  0.04070806    -0.23200
C672        C  0.61377763  0.85132654  0.04958199     0.19700
F673        F  0.63942487  0.85410791  0.07600423    -0.13200
F674        F  0.61790190  0.91609930  0.04434991    -0.15500
F675        F  0.55709078  0.78358384  0.00005838    -0.15600
F676        F  0.53549092  0.84600012  0.96839463    -0.13200
C677        C  0.40601661  0.88041679  0.00231630     0.24800
C678        C  0.44077557  0.88139984  0.01782145    -0.23300
C679        C  0.45895531  0.84776853  0.02285291     0.19700
C680        C  0.44520890  0.81478720  0.00741517     0.24800
C681        C  0.41257555  0.81476857  0.98741117    -0.23200
C682        C  0.39184293  0.84758109  0.98776771     0.19700
F683        F  0.35847756  0.84884486  0.97222168    -0.13200
F684        F  0.38646712  0.91183321  0.99918181    -0.15500
F685        F  0.46480077  0.78343683  0.01064341    -0.15600
F686        F  0.49134815  0.84707914  0.04030994    -0.13200
C687        C  0.58804183  0.02771801  0.13284256     0.24800
C688        C  0.56444311  0.99713336  0.13178047    -0.23300
C689        C  0.55132522  0.98307505  0.16523924     0.19700
C690        C  0.55807264  0.00202494  0.19858286     0.24800
C691        C  0.57815211  0.03530477  0.19906936    -0.23200
C692        C  0.59493832  0.04647113  0.16589977     0.19700
F693        F  0.61643189  0.07696218  0.16457979    -0.13200
F694        F  0.60276655  0.04107567  0.10134082    -0.15500
F695        F  0.54371397  0.98847950  0.23009028    -0.15600
F696        F  0.52918076  0.95300501  0.16547215    -0.13200
C697        C  0.41804987  0.97470743  0.12840325     0.24800
C698        C  0.44585114  0.00142033  0.12912527    -0.23300
C699        C  0.46070888  0.01188007  0.16317304     0.19700
C700        C  0.45096709  0.99297395  0.19518137     0.24800
C701        C  0.42549133  0.96366124  0.19396098    -0.23200
C702        C  0.40762573  0.95641418  0.16034161     0.19700
F703        F  0.38119730  0.93027083  0.15747110    -0.13200
F704        F  0.40219617  0.96480857  0.09615215    -0.15500
F705        F  0.46772772  0.00249744  0.22695023    -0.15600
F706        F  0.48714326  0.03812438  0.16495971    -0.13200
C707        C  0.46301794  0.14358735  0.98884240     0.24800
C708        C  0.44792684  0.11074356  0.00282594    -0.23300
C709        C  0.41993495  0.11380973  0.02949326     0.19700
C710        C  0.41104631  0.14803422  0.04543488     0.24800
C711        C  0.42996293  0.18044738  0.03521656    -0.23200
C712        C  0.45421115  0.17797604  0.00496305     0.19700
F713        F  0.47029045  0.20864840  0.99151793    -0.13200
F714        F  0.48818305  0.14245668  0.96112809    -0.15500
F715        F  0.38498855  0.14864921  0.07230174    -0.15600
F716        F  0.40264212  0.08336431  0.04219893    -0.13200
C717        C  0.59638288  0.11480967  0.97874916     0.24800
C718        C  0.57028125  0.11286436  0.00729601    -0.23300
C719        C  0.55280593  0.14579933  0.01891949     0.19700
C720        C  0.55815310  0.17860275  0.99953469     0.24800
C721        C  0.58073922  0.17916792  0.96789020    -0.23200
C722        C  0.60139133  0.14717291  0.95926452     0.19700
F723        F  0.62564910  0.14609693  0.93076886    -0.13200
F724        F  0.61560894  0.08455457  0.96772182    -0.15500
F725        F  0.54054344  0.20946804  0.01135787    -0.15600
F726        F  0.52893545  0.14592310  0.04777315    -0.13200
C727        C  0.08703269  0.15999092  0.58081127     0.24800
C728        C  0.07079640  0.19301627  0.56918777    -0.23300
C729        C  0.03561271  0.19107021  0.55435962     0.19700
C730        C  0.01838706  0.15681069  0.54893373     0.24800
C731        C  0.03593897  0.12397746  0.55820957    -0.23200
C732        C  0.06987654  0.12597032  0.57504997     0.19700
F733        F  0.08807015  0.09462011  0.58267462    -0.13200
F734        F  0.12092946  0.15991386  0.59517481    -0.15500
F735        F  0.98584845  0.15539831  0.53166255    -0.15600
F736        F  0.01837105  0.22205414  0.54393007    -0.13200
C737        C  0.45935094  0.00227738  0.85029416     0.24800
C738        C  0.44877080  0.02052703  0.88319704    -0.23300
C739        C  0.43131166  0.05455372  0.88165019     0.19700
C740        C  0.42630369  0.07122574  0.84790729     0.24800
C741        C  0.43902570  0.05421365  0.81482424    -0.23200
C742        C  0.45458912  0.01895424  0.81636401     0.19700
F743        F  0.46638112  0.00114397  0.78527327    -0.13200
F744        F  0.47727935  0.96969683  0.85131377    -0.15500
F745        F  0.41172502  0.10547634  0.84824473    -0.15600
F746        F  0.42234908  0.07333725  0.91315138    -0.13200
C747        C  0.16400800  0.41305581  0.93864268     0.24800
C748        C  0.19672439  0.42857474  0.95216549    -0.23300
C749        C  0.19581830  0.44578589  0.98724172     0.19700
C750        C  0.16258805  0.44978063  0.00687712     0.24800
C751        C  0.12971150  0.43638913  0.99182314    -0.23200
C752        C  0.13134254  0.41647688  0.95834521     0.19700
F753        F  0.10068528  0.40177976  0.94337246    -0.13200
F754        F  0.16276587  0.39594035  0.90515593    -0.15500
F755        F  0.16231907  0.46895129  0.03930872    -0.15600
F756        F  0.22685690  0.45924017  0.00232177    -0.13200
C757        C  0.20807669  0.29681752  0.66748605     0.24800
C758        C  0.22622769  0.26405917  0.67605811    -0.23300
C759        C  0.21744501  0.23124147  0.65686908     0.19700
C760        C  0.19017698  0.23086292  0.63076785     0.24800
C761        C  0.17097650  0.26315176  0.62334210    -0.23200
C762        C  0.18065264  0.29635069  0.64130494     0.19700
F763        F  0.16263850  0.32804838  0.63468029    -0.13200
F764        F  0.21662676  0.32929227  0.68456606    -0.15500
F765        F  0.18268711  0.19872899  0.61263368    -0.15600
F766        F  0.23411164  0.19898977  0.66427387    -0.13200
C767        C  0.34209955  0.18800162  0.70612637     0.24800
C768        C  0.32763547  0.20481332  0.73829323    -0.23300
C769        C  0.33936940  0.19297774  0.77265411     0.19700
C770        C  0.36539002  0.16541338  0.77485932     0.24800
C771        C  0.38030413  0.14880580  0.74276281    -0.23200
C772        C  0.36823397  0.16031926  0.70832877     0.19700
F773        F  0.38128045  0.14453581  0.67667534    -0.13200
F774        F  0.33157494  0.19879460  0.67244078    -0.15500
F775        F  0.37641939  0.15571407  0.80867015    -0.15600
F776        F  0.32530923  0.20763895  0.80442279    -0.13200
C777        C  0.23260942  0.35634117  0.83149472     0.24800
C778        C  0.26342224  0.36556205  0.85219653    -0.23300
C779        C  0.29667929  0.34785375  0.84447440     0.19700
C780        C  0.29941186  0.32200776  0.81581480     0.24800
C781        C  0.26884387  0.31335060  0.79434316    -0.23200
C782        C  0.23528847  0.33049378  0.80268361     0.19700
F783        F  0.20496951  0.32215682  0.78317905    -0.13200
F784        F  0.20025151  0.37335388  0.83819087    -0.15500
F785        F  0.33233434  0.30632711  0.80850738    -0.15600
F786        F  0.32660731  0.35538921  0.86487131    -0.13200
C787        C  0.81670126  0.55023155  0.97298114     0.24800
C788        C  0.81686111  0.56719202  0.93853671    -0.23300
C789        C  0.85043037  0.58137849  0.92487713     0.19700
C790        C  0.88304269  0.57509525  0.94309925     0.24800
C791        C  0.88297021  0.55517675  0.97548976    -0.23200
C792        C  0.84947116  0.54441787  0.99125935     0.19700
F793        F  0.84886388  0.52518353  0.02282820    -0.13200
F794        F  0.78517521  0.53773652  0.98832444    -0.15500
F795        F  0.91513724  0.58528078  0.92715240    -0.15600
F796        F  0.85252019  0.59902422  0.89242433    -0.13200
C797        C  0.95601920  0.84036628  0.57449432     0.24800
C798        C  0.96843938  0.80713625  0.55790234    -0.23300
C799        C  0.00174570  0.80766750  0.53811609     0.19700
C800        C  0.02067148  0.84099735  0.53287949     0.24800
C801        C  0.00658746  0.87434147  0.54748135    -0.23200
C802        C  0.97505639  0.87319633  0.56977644     0.19700
F803        F  0.96105782  0.90453826  0.58528494    -0.13200
F804        F  0.92402947  0.84198994  0.59365866    -0.15500
F805        F  0.05108360  0.84095273  0.51116518    -0.15600
F806        F  0.01557768  0.77620686  0.52305264    -0.13200
C807        C  0.78457469  0.64941911  0.78377068     0.24800
C808        C  0.75396092  0.67206319  0.77862713    -0.23300
C809        C  0.72289915  0.66708884  0.80143650     0.19700
C810        C  0.72274621  0.64091368  0.82886421     0.24800
C811        C  0.75348503  0.61908480  0.83436571    -0.23200
C812        C  0.78435209  0.62338189  0.81154101     0.19700
F813        F  0.81426648  0.60213530  0.81592066    -0.13200
F814        F  0.81510472  0.65273444  0.76254433    -0.15500
F815        F  0.69293895  0.63810839  0.85120801    -0.15600
F816        F  0.69249428  0.68775750  0.79777686    -0.13200
C817        C  0.83605303  0.70442588  0.66647772     0.24800
C818        C  0.81443670  0.73543173  0.67545503    -0.23300
C819        C  0.82275434  0.76925168  0.65882017     0.19700
C820        C  0.85142534  0.77171256  0.63329993     0.24800
C821        C  0.87211509  0.74044922  0.62374181    -0.23200
C822        C  0.86455620  0.70697527  0.64091556     0.19700
F823        F  0.88482913  0.67655757  0.63289957    -0.13200
F824        F  0.82906731  0.67116488  0.68145985    -0.15500
F825        F  0.85784826  0.80429922  0.61673413    -0.15600
F826        F  0.80321131  0.80006675  0.66707820    -0.13200
C827        C  0.57098674  0.96729368  0.81648627     0.24800
C828        C  0.58496755  0.93138049  0.81251032    -0.23300
C829        C  0.59623548  0.91326716  0.84446057     0.19700
C830        C  0.59104438  0.92944288  0.87935125     0.24800
C831        C  0.57514730  0.96424243  0.88331299    -0.23200
C832        C  0.56631440  0.98360011  0.85157249     0.19700
F833        F  0.55020295  0.01712391  0.85475032    -0.13200
F834        F  0.56087478  0.98625934  0.78661017    -0.15500
F835        F  0.59860598  0.90970497  0.90954906    -0.15600
F836        F  0.60981366  0.87858354  0.84246756    -0.13200
C837        C  0.65294547  0.81587669  0.76531153     0.24800
C838        C  0.64406132  0.83700617  0.73491225    -0.23300
C839        C  0.66233174  0.83035783  0.70117217     0.19700
C840        C  0.68964041  0.80358616  0.69823282     0.24800
C841        C  0.69887862  0.78282302  0.72894651    -0.23200
C842        C  0.68001135  0.78922877  0.76244318     0.19700
F843        F  0.68825368  0.77038701  0.79300989    -0.13200
F844        F  0.63500683  0.82053007  0.79793499    -0.15500
F845        F  0.70669459  0.79781105  0.66527206    -0.15600
F846        F  0.65452967  0.85044431  0.67129804    -0.13200
C847        C  0.47128333  0.37771708  0.07649632     0.24800
C848        C  0.50312850  0.37777810  0.05446972    -0.23300
C849        C  0.51755500  0.34366062  0.04236943     0.19700
C850        C  0.49873596  0.31055960  0.04951194     0.24800
C851        C  0.46515226  0.31089992  0.06896906    -0.23200
C852        C  0.45244950  0.34502635  0.08334682     0.19700
F853        F  0.42046482  0.34751843  0.10245043    -0.13200
F854        F  0.45692169  0.40983613  0.08983701    -0.15500
F855        F  0.51302675  0.27835603  0.03659368    -0.15600
F856        F  0.54834304  0.34246006  0.02125220    -0.13200
C857        C  0.53597810  0.37092820  0.91875174     0.24800
C858        C  0.50432942  0.37285593  0.94081429    -0.23300
C859        C  0.48912762  0.33972764  0.95382217     0.19700
C860        C  0.50708285  0.30588311  0.94731325     0.24800
C861        C  0.54046355  0.30454579  0.92761674    -0.23200
C862        C  0.55378427  0.33755699  0.91237827     0.19700
F863        F  0.58549242  0.33845741  0.89282778    -0.13200
F864        F  0.55109991  0.40193365  0.90472256    -0.15500
F865        F  0.49208998  0.27466330  0.96078772    -0.15600
F866        F  0.45837289  0.34032641  0.97502094    -0.13200
C867        C  0.64991211  0.51071585  0.04223835     0.24800
C868        C  0.61571819  0.50299245  0.05878874    -0.23300
C869        C  0.61492244  0.47970013  0.08909989     0.19700
C870        C  0.64605570  0.46065649  0.09925609     0.24800
C871        C  0.67946718  0.46454123  0.07964718    -0.23200
C872        C  0.68132196  0.49136706  0.05220892     0.19700
F873        F  0.71311602  0.49806907  0.03398453    -0.13200
F874        F  0.65268839  0.53522051  0.01470328    -0.15500
F875        F  0.64247242  0.43702182  0.12747466    -0.15600
F876        F  0.58326978  0.47342337  0.10781246    -0.13200
C877        C  0.65228184  0.48578364  0.94703955     0.24800
C878        C  0.61962196  0.49674891  0.93043381    -0.23300
C879        C  0.62231644  0.52104550  0.90090734     0.19700
C880        C  0.65573689  0.53691757  0.89089311     0.24800
C881        C  0.68799118  0.52912382  0.91007391    -0.23200
C882        C  0.68596410  0.50204481  0.93727244     0.19700
F883        F  0.71636973  0.49173926  0.95508374    -0.12600
F884        F  0.65154703  0.46063380  0.97406686    -0.15500
F885        F  0.65570695  0.56130066  0.86315046    -0.15600
F886        F  0.59215154  0.53106950  0.88248275    -0.13200
C887        C  0.55857617  0.62353943  0.08599846     0.24800
C888        C  0.52808105  0.62320318  0.06356865    -0.23300
C889        C  0.51370731  0.65669628  0.05183407     0.19700
C890        C  0.53167836  0.68996837  0.05960150     0.24800
C891        C  0.56451288  0.69017249  0.07919844    -0.23200
C892        C  0.57659421  0.65665129  0.09402613     0.19700
F893        F  0.60751852  0.65505015  0.11390482    -0.13200
F894        F  0.57314041  0.59133403  0.09693159    -0.15500
F895        F  0.51783026  0.72154200  0.04631478    -0.15600
F896        F  0.48399394  0.65679063  0.03002415    -0.13200
C897        C  0.47069686  0.68815464  0.93920709     0.24800
C898        C  0.43322739  0.68920031  0.93148708    -0.23300
C899        C  0.41550793  0.65599978  0.92111345     0.19700
C900        C  0.43385076  0.62236911  0.92219531     0.24800
C901        C  0.47024408  0.62112446  0.93324787    -0.23200
C902        C  0.48905493  0.65438441  0.93984193     0.19700
F903        F  0.52416262  0.65381607  0.95109382    -0.13200
F904        F  0.48923173  0.71956904  0.94774915    -0.15500
F905        F  0.41487848  0.59059814  0.91643366    -0.15600
F906        F  0.37946539  0.65542856  0.91318940    -0.13200
C907        C  0.38031556  0.51937312  0.08714619     0.24800
C908        C  0.38513324  0.49504139  0.05694034    -0.23300
C909        C  0.35424053  0.48533702  0.03607500     0.19700
C910        C  0.32076292  0.50316698  0.04233885     0.24800
C911        C  0.31715534  0.53093353  0.06978283    -0.23200
C912        C  0.34691205  0.53700675  0.09356661     0.19700
F913        F  0.34456225  0.56117160  0.12248335    -0.13200
F914        F  0.40859542  0.52780804  0.10951111    -0.15500
F915        F  0.29238891  0.49407783  0.02048017    -0.15600
F916        F  0.35682771  0.46029084  0.00792646    -0.13200
C917        C  0.32455351  0.50084011  0.93577941     0.24800
C918        C  0.32338314  0.46882767  0.91343118    -0.23300
C919        C  0.35614460  0.45734980  0.89553095     0.19700
C920        C  0.38946186  0.47359725  0.90439890     0.24800
C921        C  0.39122307  0.50165732  0.93145748    -0.23200
C922        C  0.35814624  0.51722074  0.94467492     0.19700
F923        F  0.35827107  0.54659928  0.96839359    -0.13200
F924        F  0.29340688  0.51571228  0.94988520    -0.15500
F925        F  0.42026864  0.45949006  0.88855418    -0.15600
F926        F  0.35687216  0.42869803  0.87093946    -0.13200
C927        C  0.06414665  0.49199096  0.30327028     0.24800
C928        C  0.08579842  0.46003983  0.30281374    -0.23300
C929        C  0.10218810  0.44986030  0.33601821     0.19700
C930        C  0.09383407  0.46842123  0.36901475     0.24800
C931        C  0.06894113  0.49764535  0.37003281    -0.23200
C932        C  0.05576382  0.51065027  0.33656666     0.19700
F933        F  0.03214922  0.53931081  0.33630990    -0.13200
F934        F  0.05007448  0.50453539  0.27174380    -0.15500
F935        F  0.10848974  0.45616211  0.40051064    -0.15600
F936        F  0.12461497  0.42031261  0.33747289    -0.13200
C937        C  0.95945467  0.49256043  0.30542349     0.24800
C938        C  0.93394943  0.52160367  0.30607245    -0.23300
C939        C  0.91379176  0.52816536  0.33894703     0.19700
C940        C  0.92262953  0.51012710  0.37112821     0.24800
C941        C  0.95132791  0.48470745  0.37133960    -0.23200
C942        C  0.96792976  0.47417258  0.33773614     0.19700
F943        F  0.99499409  0.44878838  0.33675289    -0.13200
F944        F  0.97760850  0.48303546  0.27401108    -0.15500
F945        F  0.90475965  0.51952325  0.40287831    -0.15600
F946        F  0.88691062  0.55370821  0.34095910    -0.13200
C947        C  0.05945013  0.51713653  0.65155807     0.24800
C948        C  0.06275043  0.53877643  0.62001375    -0.23300
C949        C  0.06821107  0.57685651  0.62448168     0.19700
C950        C  0.06933996  0.59325683  0.65952087     0.24800
C951        C  0.06475830  0.57198058  0.69124308    -0.23200
C952        C  0.06036014  0.53358939  0.68690810     0.19700
F953        F  0.05615136  0.51211709  0.71674716    -0.13200
F954        F  0.05201959  0.48056106  0.64808730    -0.15500
F955        F  0.07223984  0.63051709  0.66221839    -0.15600
F956        F  0.06913639  0.59871099  0.59467128    -0.13200
C957        C  0.92175509  0.43804175  0.61819201     0.24800
C958        C  0.94080032  0.47150911  0.61715434    -0.23300
C959        C  0.95154780  0.48837918  0.65048888     0.19700
C960        C  0.94552597  0.47094989  0.68407821     0.24800
C961        C  0.92831241  0.43622641  0.68510863    -0.23200
C962        C  0.91519910  0.42072933  0.65171590     0.19700
F963        F  0.89837823  0.38736212  0.65082728    -0.13200
F964        F  0.91246815  0.42039261  0.58638497    -0.15500
F965        F  0.95766377  0.48760017  0.71535343    -0.15600
F966        F  0.97075570  0.52044121  0.65015722    -0.13200
C967        C  0.07358378  0.32034600  0.49974983     0.24800
C968        C  0.09949549  0.32118696  0.52794277    -0.23300
C969        C  0.11841046  0.35467985  0.53489635     0.19700
C970        C  0.10860755  0.38695730  0.51752265     0.24800
C971        C  0.07959267  0.38695069  0.49280231    -0.23200
C972        C  0.06405829  0.35281045  0.48205396     0.19700
F973        F  0.03765444  0.35106421  0.45633241    -0.13200
F974        F  0.05627884  0.28851038  0.49016658    -0.15500
F975        F  0.12613386  0.41877387  0.52690738    -0.15600
F976        F  0.14526351  0.35720715  0.56009416    -0.13200
C977        C  0.90197440  0.34999006  0.46455737     0.24800
C978        C  0.92174315  0.31678394  0.46676927    -0.23300
C979        C  0.95223347  0.31639855  0.48995834     0.19700
C980        C  0.96481915  0.34908739  0.50687196     0.24800
C981        C  0.94785071  0.38300076  0.50015526    -0.23200
C982        C  0.91497680  0.38255503  0.48084971     0.19700
F983        F  0.89631245  0.41421194  0.47579627    -0.13200
F984        F  0.87081341  0.35183287  0.44506030    -0.15500
F985        F  0.99514094  0.34775513  0.52768081    -0.15600
F986        F  0.97101523  0.28485551  0.49511871    -0.13200
C987        C  0.91222147  0.61547110  0.50653594     0.24800
C988        C  0.94206691  0.61094494  0.48242063    -0.23300
C989        C  0.96120909  0.64269841  0.47101828     0.19700
C990        C  0.95445818  0.67704717  0.48807126     0.24800
C991        C  0.92815195  0.68041340  0.51641655    -0.23200
C992        C  0.90517840  0.64969415  0.52319534     0.19700
F993        F  0.87690214  0.65174066  0.54762911    -0.13200
F994        F  0.89140935  0.58614335  0.51637018    -0.15500
F995        F  0.97492581  0.70641032  0.47797708    -0.15600
F996        F  0.98848982  0.64017430  0.44548084    -0.13200
C997        C  0.08990851  0.61537770  0.46016113     0.24800
C998        C  0.06553915  0.61458013  0.49042764    -0.23300
C999        C  0.05215488  0.64845735  0.50462025     0.19700
C1000       C  0.05926530  0.68142319  0.48622777     0.24800
C1001       C  0.07953678  0.68130520  0.45306577    -0.23200
C1002       C  0.09649805  0.64804091  0.44158892     0.19700
F1003       F  0.11797624  0.64612947  0.41094015    -0.13200
F1004       F  0.10531279  0.58397742  0.44632999    -0.15500
F1005       F  0.04554785  0.71326193  0.50054146    -0.15600
F1006       F  0.03033547  0.64954519  0.53506671    -0.13200
C1007       C  0.49780321  0.09211876  0.62267550     0.24800
C1008       C  0.51691885  0.05877005  0.61938309    -0.23300
C1009       C  0.52348222  0.03908396  0.65157257     0.19700
C1010       C  0.50623153  0.04927125  0.68494116     0.24800
C1011       C  0.48303311  0.08012284  0.68705314    -0.23200
C1012       C  0.48136037  0.10285877  0.65604656     0.19700
F1013       F  0.46233215  0.13484997  0.65713825    -0.13200
F1014       F  0.49303690  0.11339825  0.59292268    -0.15500
F1015       F  0.51074254  0.02764700  0.71444042    -0.15600
F1016       F  0.54441438  0.00837308  0.65030819    -0.13200
C1017       C  0.49630065  0.94285209  0.65297196     0.24800
C1018       C  0.50750243  0.92923189  0.61795030    -0.23300
C1019       C  0.53420308  0.90151510  0.61636570     0.19700
C1020       C  0.55247754  0.89131576  0.64786908     0.24800
C1021       C  0.54444037  0.90806571  0.68249682    -0.23200
C1022       C  0.51471069  0.93256572  0.68484611     0.19700
F1023       F  0.50406549  0.94757272  0.71772062    -0.13200
F1024       F  0.46911177  0.96798240  0.65630238    -0.15500
F1025       F  0.57953778  0.86616699  0.64351029    -0.15600
F1026       F  0.54476726  0.88572684  0.58377657    -0.13200
C1027       C  0.31765660  0.06159950  0.48133357     0.24800
C1028       C  0.31672982  0.07111145  0.44411345    -0.23300
C1029       C  0.35006191  0.07689831  0.42518890     0.19700
C1030       C  0.38332962  0.07123513  0.44234163     0.24800
C1031       C  0.38429165  0.05988834  0.47885222    -0.23200
C1032       C  0.35120181  0.05607938  0.49854762     0.19700
F1033       F  0.35133322  0.04375083  0.53347847    -0.13200
F1034       F  0.28619248  0.05666841  0.50072771    -0.15500
F1035       F  0.41461778  0.07317692  0.42205973    -0.15600
F1036       F  0.35060804  0.08497583  0.38896711    -0.13200
C1037       C  0.31315493  0.94087251  0.53749662     0.24800
C1038       C  0.30939357  0.92721917  0.57331735    -0.23300
C1039       C  0.34098105  0.91377871  0.59044632     0.19700
C1040       C  0.37538048  0.91689971  0.57359865     0.24800
C1041       C  0.37916437  0.93258583  0.53900046    -0.23200
C1042       C  0.34766758  0.94346587  0.52059200     0.19700
F1043       F  0.35070506  0.95990039  0.48753943    -0.13200
F1044       F  0.28377187  0.95325575  0.51929274    -0.15500
F1045       F  0.40546366  0.90763391  0.59256172    -0.15600
F1046       F  0.33935647  0.89997905  0.62475947    -0.13200
C1047       C  0.48804017  0.03870733  0.35896326     0.24800
C1048       C  0.49992397  0.05437426  0.39256497    -0.23300
C1049       C  0.52534708  0.08341564  0.39140235     0.19700
C1050       C  0.54247369  0.09266182  0.35839104     0.24800
C1051       C  0.53456324  0.07318196  0.32534594    -0.23200
C1052       C  0.50552084  0.04767692  0.32576299     0.19700
F1053       F  0.49468472  0.03049549  0.29430776    -0.13200
F1054       F  0.46116733  0.01287746  0.35832142    -0.15500
F1055       F  0.56851562  0.11929864  0.35973650    -0.15600
F1056       F  0.53581629  0.10127621  0.42271348    -0.13200
C1057       C  0.46087970  0.91217399  0.38623697     0.24800
C1058       C  0.49464617  0.93089290  0.38741386    -0.23300
C1059       C  0.50968078  0.94355278  0.35403041     0.19700
C1060       C  0.49057704  0.93928923  0.32092018     0.24800
C1061       C  0.45587479  0.92243214  0.32030947    -0.23200
C1062       C  0.44174160  0.90835653  0.35344088     0.19700
F1063       F  0.40822625  0.89243090  0.35488616    -0.13200
F1064       F  0.44484842  0.89937926  0.41733997    -0.15500
F1065       F  0.50598905  0.95204985  0.28955688    -0.15600
F1066       F  0.54226150  0.96143785  0.35354635    -0.13200
C1067       C  0.62948075  0.07105459  0.52925280     0.24800
C1068       C  0.62877477  0.04646687  0.49893552    -0.23300
C1069       C  0.66208355  0.03153138  0.48603781     0.19700
C1070       C  0.69454996  0.03785533  0.50568039     0.24800
C1071       C  0.69434199  0.05932869  0.53854518    -0.23200
C1072       C  0.66141263  0.07720319  0.54885881     0.19700
F1073       F  0.65902681  0.09941201  0.57927872    -0.13200
F1074       F  0.59835436  0.08758572  0.54161119    -0.15500
F1075       F  0.72583134  0.02210869  0.49300835    -0.15600
F1076       F  0.66281878  0.00863636  0.45606974    -0.13200
C1077       C  0.69474226  0.93709762  0.49457626     0.24800
C1078       C  0.69564640  0.92132948  0.45884589    -0.23300
C1079       C  0.66237810  0.90985506  0.44328760     0.19700
C1080       C  0.62924579  0.91563383  0.46184931     0.24800
C1081       C  0.62790960  0.93373205  0.49647069    -0.23200
C1082       C  0.66124000  0.94326461  0.51321620     0.19700
F1083       F  0.66144288  0.96066435  0.54658760    -0.13200
F1084       F  0.72620504  0.94694589  0.51134490    -0.15500
F1085       F  0.59815200  0.90491822  0.44476492    -0.15600
F1086       F  0.66138589  0.89468989  0.40891608    -0.13200
loop_ 
_geom_bond_atom_site_label_1 
_geom_bond_atom_site_label_2 
_geom_bond_distance 
_geom_bond_site_symmetry_2 
_ccdc_geom_bond_type 
O1            C9   1.288       .  A
O1          Co21   2.069       .  S
O2           C10   1.267       .  A
O2          Co22   1.986   1_565  S
O3           C11   1.270       .  A
O3          Co23   1.958       .  S
O4           C12   1.260       .  A
O4          Co24   1.964       .  S
O5           C11   1.285       .  A
O5          Co22   2.055   1_565  S
O6           C12   1.267       .  A
O6          Co21   2.027       .  S
O7           C10   1.273       .  A
O7          Co24   1.994       .  S
O8            C9   1.271       .  A
O8          Co23   1.939       .  S
C9         C1081   1.496       .  S
C10        C1041   1.471       .  S
C11        C1018   1.497       .  S
C12        C1058   1.498       .  S
O13          C26   1.269       .  A
O13         Co21   1.959   1_545  S
O14          C27   1.261       .  A
O14         Co22   1.972       .  S
O15          C28   1.286       .  A
O15         Co23   2.067   1_545  S
O16          C29   1.264       .  A
O16         Co24   1.978   1_545  S
O17          C29   1.274       .  A
O17         Co22   2.004       .  S
O18          C28   1.272       .  A
O18         Co21   1.947   1_545  S
O19          C26   1.282       .  A
O19         Co24   2.043   1_545  S
O20          C27   1.266       .  A
O20         Co23   2.017   1_545  S
Co21         O25   2.043       .  S
Co22         O25   2.033   1_545  S
Co23         O25   2.026       .  S
Co24         O25   2.032       .  S
C26        C1048   1.488       .  S
C27        C1008   1.489       .  S
C28        C1068   1.491       .  S
C29        C1031   1.471       .  S
O30          C38   1.263       .  A
O30         Co50   1.976       .  S
O31          C39   1.268       .  A
O31         Co51   1.959   1_655  S
O32          C40   1.288       .  A
O32         Co52   2.078   1_655  S
O33          C41   1.266       .  A
O33         Co53   1.982   1_655  S
O34          C40   1.269       .  A
O34         Co51   1.928   1_655  S
O35          C41   1.276       .  A
O35         Co50   2.004       .  S
O36          C39   1.282       .  A
O36         Co53   2.045   1_655  S
O37          C38   1.259       .  A
O37         Co52   1.995   1_655  S
C38         C988   1.485       .  S
C39         C981   1.488       .  S
C40         C941   1.480       .  S
C41         C958   1.473       .  S
O42          C55   1.264       .  A
O42         Co50   1.977   1_455  S
O43          C56   1.289       .  A
O43         Co51   2.082       .  S
O44          C57   1.269       .  A
O44         Co52   1.959       .  S
O45          C58   1.262       .  A
O45         Co53   1.973       .  S
O46          C58   1.265       .  A
O46         Co51   2.008       .  S
O47          C57   1.285       .  A
O47         Co50   2.050   1_455  S
O48          C55   1.275       .  A
O48         Co53   2.000       .  S
O49          C56   1.265       .  A
O49         Co52   1.923       .  S
Co50         O54   2.031   1_655  S
Co51         O54   2.026       .  S
Co52         O54   2.018       .  S
Co53         O54   2.033       .  S
C55         C948   1.473       .  S
C56         C931   1.483       .  S
C57         C998   1.493       .  S
C58         C971   1.487       .  S
O59          C67   1.261       .  A
O59         Co79   1.972       .  S
O60          C68   1.269       .  A
O60         Co80   1.962       .  S
O61          C69   1.287       .  A
O61         Co81   2.068   1_554  S
O62          C70   1.268       .  A
O62         Co82   1.989   1_554  S
O63          C69   1.273       .  A
O63         Co80   1.937       .  S
O64          C70   1.269       .  A
O64         Co79   1.982       .  S
O65          C68   1.282       .  A
O65         Co82   2.049   1_554  S
O66          C67   1.263       .  A
O66         Co81   2.011   1_554  S
C67         C908   1.493       .  S
C68         C868   1.495       .  S
C69         C848   1.489       .  S
C70         C888   1.461       .  S
O71          C84   1.266       .  A
O71         Co79   1.982   1_556  S
O72          C85   1.290       .  A
O72         Co80   2.074   1_556  S
O73          C86   1.273       .  A
O73         Co81   1.966       .  S
O74          C87   1.263       .  A
O74         Co82   1.973       .  S
O75          C87   1.270       .  A
O75         Co80   2.033   1_556  S
O76          C86   1.280       .  A
O76         Co79   2.031   1_556  S
O77          C84   1.272       .  A
O77         Co82   1.997       .  S
O78          C85   1.269       .  A
O78         Co81   1.930       .  S
Co79         O83   2.032   1_554  S
Co80         O83   2.029   1_554  S
Co81         O83   2.022       .  S
Co82         O83   2.036       .  S
C84         C901   1.467       .  S
C85         C858   1.487       .  S
C86         C921   1.489       .  S
C87         C878   1.501       .  S
C88         C828   1.494       .  S
C88          N89   1.355       .  A
C88          N93   1.371       .  A
N89          C90   1.351       .  A
C90         C838   1.476       .  S
C90          N91   1.351       .  A
N91          C92   1.359       .  A
C92        C1021   1.503       .  S
C92          N93   1.371       .  A
C94         C808   1.488       .  S
C94          N95   1.353       .  A
C94          N99   1.356       .  A
N95          C96   1.354       .  A
C96         C841   1.480       .  S
C96          N97   1.357       .  A
N97          C98   1.360       .  A
C98         C818   1.482       .  S
C98          N99   1.360       .  A
C100        C991   1.495       .  S
C100        N101   1.370       .  A
C100        N105   1.353       .  A
N101        C102   1.371       .  A
C102        C798   1.493       .  S
C102        N103   1.358       .  A
N103        C104   1.349       .  A
C104        C821   1.469       .  S
C104        N105   1.347       .  A
C106        C788   1.497       .  S
C106        N107   1.356       .  A
C106        N111   1.372       .  A
N107        C108   1.350       .  A
C108        C811   1.472       .  S
C108        N109   1.353       .  A
N109        C110   1.358       .  A
C110        C881   1.506       .  S
C110        N111   1.370       .  A
C112        C768   1.475       .  S
C112        N113   1.354       .  A
C112        N117   1.355       .  A
N113        C114   1.353       .  A
C114        C781   1.471       .  S
C114        N115   1.354       .  A
N115        C116   1.356       .  A
C116        C758   1.473       .  S
C116        N117   1.357       .  A
C118        C918   1.496       .  S
C118        N119   1.374       .  A
C118        N123   1.351       .  A
N119        C120   1.374       .  A
C120        C748   1.497       .  S
C120        N121   1.357       .  A
N121        C122   1.348       .  A
C122        C778   1.465       .  S
C122        N123   1.345       .  A
C124        C741   1.488       .  S
C124        N125   1.354       .  A
C124        N129   1.367       .  A
N125        C126   1.352       .  A
C126        C771   1.479       .  S
C126        N127   1.353       .  A
N127        C128   1.358       .  A
C128       C1011   1.498       .  S
C128        N129   1.367       .  A
C130        C728   1.492       .  S
C130        N131   1.353       .  A
C130        N135   1.369       .  A
N131        C132   1.350       .  A
C132        C761   1.469       .  S
C132        N133   1.350       .  A
N133        C134   1.357       .  A
C134        C968   1.496       .  S
C134        N135   1.370       .  A
O136        C144   1.266       .  A
O136       Co156   1.983       .  S
O137        C145   1.288   1_565  A
O137       Co157   2.077       .  S
O138        C146   1.261       .  A
O138       Co158   1.975   1_554  S
O139        C147   1.271   1_554  A
O139       Co159   1.969       .  S
O140        C146   1.264       .  A
O140       Co157   2.017       .  S
O141        C147   1.280       .  A
O141       Co156   2.037       .  S
O142        C145   1.271       .  A
O142       Co159   1.928       .  S
O143        C144   1.271   1_565  A
O143       Co158   1.990       .  S
C144        C738   1.463       .  S
C145        C698   1.483       .  S
C146        C678   1.486       .  S
C147        C708   1.494   1_556  S
O148        C161   1.262       .  A
O148       Co156   1.969   1_554  S
O149        C162   1.268   1_554  A
O149       Co157   1.961       .  S
O150        C163   1.266       .  A
O150       Co158   1.987       .  S
O151        C164   1.289   1_545  A
O151       Co159   2.077       .  S
O152        C164   1.268       .  A
O152       Co157   1.925       .  S
O153        C163   1.272       .  A
O153       Co156   1.992   1_565  S
O154        C161   1.265       .  A
O154       Co159   2.020       .  S
O155        C162   1.283       .  A
O155       Co158   2.044       .  S
Co156       O160   2.032   1_545  S
Co157       O160   2.022   1_554  S
Co158       O160   2.029       .  S
Co159       O160   2.031   1_544  S
C161        C718   1.495       .  S
C162        C668   1.493   1_556  S
C163        C831   1.470       .  S
C164        C688   1.485       .  S
C165        C658   1.480       .  S
C165        N166   1.355       .  A
C165        N170   1.359       .  A
N166        C167   1.355       .  A
C167        C641   1.477       .  S
C167        N168   1.354       .  A
N168        C169   1.356       .  A
C169        C648   1.479       .  S
C169        N170   1.359       .  A
C171        C898   1.490       .  S
C171        N172   1.358       .  A
C171        N176   1.369       .  A
N172        C173   1.354       .  A
C173        C661   1.475       .  S
C173        N174   1.351       .  A
N174        C175   1.355       .  A
C175        C681   1.498       .  S
C175        N176   1.367       .  A
C177        C631   1.500       .  S
C177        N178   1.368       .  A
C177        N182   1.357       .  A
N178        C179   1.369       .  A
C179       C1038   1.498       .  S
C179        N180   1.358       .  A
N180        C181   1.354       .  A
C181        C651   1.480       .  S
C181        N182   1.352       .  A
C183        C618   1.498       .  S
C183        N184   1.353       .  A
C183        N188   1.370       .  A
N184        C185   1.349       .  A
C185        C638   1.474       .  S
C185        N186   1.352       .  A
N186        C187   1.358       .  A
C187        C951   1.489       .  S
C187        N188   1.371       .  A
C189        C598   1.485       .  S
C189        N190   1.360       .  A
C189        N194   1.359       .  A
N190        C191   1.357       .  A
C191        C608   1.482       .  S
C191        N192   1.354       .  A
N192        C193   1.354       .  A
C193        C591   1.475       .  S
C193        N194   1.356       .  A
C195        C978   1.497       .  S
C195        N196   1.366       .  A
C195        N200   1.360       .  A
N196        C197   1.365       .  A
C197        C578   1.486       .  S
C197        N198   1.354       .  A
N198        C199   1.352       .  A
C199        C611   1.477       .  S
C199        N200   1.354       .  A
C201        C568   1.496       .  S
C201        N202   1.353       .  A
C201        N206   1.372       .  A
N202        C203   1.348       .  A
C203        C601   1.469       .  S
C203        N204   1.351       .  A
N204        C205   1.360       .  A
C205        C871   1.504       .  S
C205        N206   1.373       .  A
C207       C1051   1.495       .  S
C207        N208   1.354       .  A
C207        N212   1.367       .  A
N208        C209   1.351       .  A
C209        C588   1.479       .  S
C209        N210   1.354       .  A
N210        C211   1.360       .  A
C211        C691   1.498       .  S
C211        N212   1.368       .  A
O213        C221   1.265       .  A
O213       Co233   1.986       .  S
O214        C222   1.287   1_554  A
O214       Co234   2.073       .  S
O215        C223   1.259       .  A
O215       Co235   1.968   1_455  S
O216        C224   1.269   1_455  A
O216       Co236   1.963       .  S
O217        C223   1.263       .  A
O217       Co234   2.014       .  S
O218        C224   1.279       .  A
O218       Co233   2.035       .  S
O219        C222   1.271       .  A
O219       Co236   1.937       .  S
O220        C221   1.270   1_554  A
O220       Co235   1.992       .  S
C221        C791   1.467       .  S
C222        C561   1.487       .  S
C223        C538   1.487       .  S
C224        C621   1.488       .  S
O225        C238   1.263   1_655  A
O225       Co233   1.973       .  S
O226        C239   1.271   1_455  A
O226       Co234   1.964       .  S
O227        C240   1.269       .  A
O227       Co235   1.992       .  S
O228        C241   1.290   1_556  A
O228       Co236   2.072       .  S
O229        C241   1.270       .  A
O229       Co234   1.931       .  S
O230        C240   1.272   1_556  A
O230       Co233   1.988       .  S
O231        C238   1.268       .  A
O231       Co236   2.022       .  S
O232        C239   1.283       .  A
O232       Co235   2.045       .  S
Co233       O237   2.039       .  S
Co234       O237   2.033   1_454  S
Co235       O237   2.027   1_554  S
Co236       O237   2.027   1_455  S
C238        C531   1.497       .  S
C239        C548   1.495   1_655  S
C240        C571   1.470       .  S
C241        C751   1.488   1_554  S
C242        C508   1.503       .  S
C242        N243   1.370       .  A
C242        N247   1.360       .  A
N243        C244   1.369       .  A
C244       C1028   1.489       .  S
C244        N245   1.355       .  A
N245        C246   1.353       .  A
C246        C521   1.483       .  S
C246        N247   1.354       .  A
C248        C518   1.478       .  S
C248        N249   1.358       .  A
C248        N253   1.358       .  A
N249        C250   1.356       .  A
C250        C491   1.486       .  S
C250        N251   1.356       .  A
N251        C252   1.357       .  A
C252        C501   1.472       .  S
C252        N253   1.358       .  A
C254        C551   1.498       .  S
C254        N255   1.357       .  A
C254        N259   1.371       .  A
N255        C256   1.350       .  A
C256        C498   1.461       .  S
C256        N257   1.349       .  A
N257        C258   1.357       .  A
C258        C928   1.497       .  S
C258        N259   1.371       .  A
C260        C851   1.500       .  S
C260        N261   1.360       .  A
C260        N265   1.371       .  A
N261        C262   1.354       .  A
C262        C488   1.477       .  S
C262        N263   1.351       .  A
N263        C264   1.355       .  A
C264        C711   1.500       .  S
C264        N265   1.371       .  A
C266        C478   1.486       .  S
C266        N267   1.360       .  A
C266        N271   1.358       .  A
N267        C268   1.361       .  A
C268        C471   1.478       .  S
C268        N269   1.357       .  A
N269        C270   1.355       .  A
C270        C458   1.487       .  S
C270        N271   1.356       .  A
C272        C961   1.498       .  S
C272        N273   1.356       .  A
C272        N277   1.370       .  A
N273        C274   1.354       .  A
C274        C481   1.482       .  S
C274        N275   1.356       .  A
N275        C276   1.361       .  A
C276        C528   1.506       .  S
C276        N277   1.370       .  A
C278        C721   1.504       .  S
C278        N279   1.372       .  A
C278        N283   1.357       .  A
N279        C280   1.372       .  A
C280        C861   1.499       .  S
C280        N281   1.359       .  A
N281        C282   1.352       .  A
C282        C468   1.483       .  S
C282        N283   1.351       .  A
C284       C1071   1.508       .  S
C284        N285   1.375       .  A
C284        N289   1.361       .  A
N285        C286   1.374       .  A
C286        C448   1.502       .  S
C286        N287   1.354       .  A
N287        C288   1.348       .  A
C288        C461   1.476       .  S
C288        N289   1.352       .  A
C290        C418   1.488       .  S
C290        N291   1.355       .  A
C290        N295   1.359       .  A
N291        C292   1.356       .  A
C292        C438   1.479       .  S
C292        N293   1.359       .  A
N293        C294   1.361       .  A
C294        C428   1.490       .  S
C294        N295   1.360       .  A
C296       C1078   1.498       .  S
C296        N297   1.370       .  A
C296        N301   1.359       .  A
N297        C298   1.371       .  A
C298        C408   1.504       .  S
C298        N299   1.358       .  A
N299        C300   1.353       .  A
C300        C441   1.484       .  S
C300        N301   1.355       .  A
C302        C541   1.497       .  S
C302        N303   1.366       .  A
C302        N307   1.355       .  A
N303        C304   1.368       .  A
C304        C938   1.500       .  S
C304        N305   1.362       .  A
N305        C306   1.356       .  A
C306        C431   1.480       .  S
C306        N307   1.352       .  A
C308        C671   1.497       .  S
C308        N309   1.362       .  A
C308        N313   1.366       .  A
N309        C310   1.357       .  A
C310        C421   1.472       .  S
C310        N311   1.351       .  A
N311        C312   1.352       .  A
C312        C891   1.490       .  S
C312        N313   1.364       .  A
C314        C388   1.479       .  S
C314        N315   1.357       .  A
C314        N319   1.355       .  A
N315        C316   1.358       .  A
C316        C401   1.481       .  S
C316        N317   1.360       .  A
N317        C318   1.361       .  A
C318        C378   1.485       .  S
C318        N319   1.357       .  A
C320       C1061   1.499       .  S
C320        N321   1.367       .  A
C320        N325   1.359       .  A
N321        C322   1.368       .  A
C322        C701   1.503       .  S
C322        N323   1.361       .  A
N323        C324   1.357       .  A
C324        C398   1.491       .  S
C324        N325   1.356       .  A
C326        C368   1.497       .  S
C326        N327   1.357       .  A
C326        N331   1.369       .  A
N327        C328   1.351       .  A
C328        C391   1.480       .  S
C328        N329   1.353       .  A
N329        C330   1.359       .  A
C330       C1001   1.499       .  S
C330        N331   1.371       .  A
C332        C911   1.502       .  S
C332        N333   1.359       .  A
C332        N337   1.371       .  A
N333        C334   1.353       .  A
C334        C381   1.479       .  S
C334        N335   1.353       .  A
N335        C336   1.358       .  A
C336        C558   1.500       .  S
C336        N337   1.369       .  A
O338        C346   1.286   1_655  A
O338       Co358   2.067       .  S
O339        C347   1.265       .  A
O339       Co359   1.983       .  S
O340        C348   1.269   1_565  A
O340       Co360   1.958       .  S
O341        C349   1.264   1_545  A
O341       Co361   1.976       .  S
O342        C348   1.284       .  A
O342       Co359   2.052       .  S
O343        C349   1.265       .  A
O343       Co358   2.014       .  S
O344        C347   1.271       .  A
O344       Co361   1.993   1_455  S
O345        C346   1.268       .  A
O345       Co360   1.930       .  S
C346        C801   1.481       .  S
C347        C731   1.467       .  S
C348        C628   1.493       .  S
C349        C451   1.494       .  S
O350        C363   1.270   1_565  A
O350       Co358   1.967       .  S
O351        C364   1.260   1_545  A
O351       Co359   1.972       .  S
O352        C365   1.290   1_455  A
O352       Co360   2.073       .  S
O353        C366   1.268       .  A
O353       Co361   1.985       .  S
O354        C366   1.271   1_455  A
O354       Co359   1.986       .  S
O355        C365   1.270       .  A
O355       Co358   1.926       .  S
O356        C363   1.280       .  A
O356       Co361   2.038       .  S
O357        C364   1.262       .  A
O357       Co360   2.015       .  S
Co358       O362   2.025   1_665  S
Co359       O362   2.036       .  S
Co360       O362   2.024   1_565  S
Co361       O362   2.033   1_655  S
C363        C411   1.496   1_545  S
C364        C511   1.493       .  S
C365        C371   1.483   1_655  S
C366        C581   1.462       .  S
C367        C368   1.414       .  A
C367        C372   1.392       .  A
C367        F374   1.356       .  S
C368        C369   1.410       .  A
C369        C370   1.409   1_455  A
C369        F376   1.356   1_455  S
C370        C371   1.410   1_655  A
C370        F375   1.358       .  S
C371        C372   1.403       .  A
C372        F373   1.359       .  S
C377        C378   1.411       .  A
C377        C382   1.396       .  A
C377        F384   1.358       .  S
C378        C379   1.410       .  A
C379        C380   1.400       .  A
C379        F386   1.358       .  S
C380        C381   1.406       .  A
C380        F385   1.358       .  S
C381        C382   1.405       .  A
C382        F383   1.358       .  S
C387        C388   1.409       .  A
C387        C392   1.398       .  A
C387        F394   1.358       .  S
C388        C389   1.406       .  A
C389        C390   1.396       .  A
C389        F396   1.358       .  S
C390        C391   1.408       .  A
C390        F395   1.356       .  S
C391        C392   1.407       .  A
C392        F393   1.357       .  S
C397        C398   1.411       .  A
C397        C402   1.398       .  A
C397        F404   1.356       .  S
C398        C399   1.412       .  A
C399        C400   1.401       .  A
C399        F406   1.357       .  S
C400        C401   1.406       .  A
C400        F405   1.358       .  S
C401        C402   1.406       .  A
C402        F403   1.358       .  S
C407        C408   1.417       .  A
C407        C412   1.399       .  A
C407        F414   1.357       .  S
C408        C409   1.409       .  A
C409        C410   1.406   1_565  A
C409        F416   1.355       .  S
C410        C411   1.414   1_545  A
C410        F415   1.358       .  S
C411        C412   1.406       .  A
C412        F413   1.358       .  S
C417        C418   1.410       .  A
C417        C422   1.396       .  A
C417        F424   1.358       .  S
C418        C419   1.414       .  A
C419        C420   1.399       .  A
C419        F426   1.358       .  S
C420        C421   1.401       .  A
C420        F425   1.358       .  S
C421        C422   1.405       .  A
C422        F423   1.358       .  S
C427        C428   1.411       .  A
C427        C432   1.397       .  A
C427        F434   1.358       .  S
C428        C429   1.412       .  A
C429        C430   1.401       .  A
C429        F436   1.357       .  S
C430        C431   1.405       .  A
C430        F435   1.358       .  S
C431        C432   1.406       .  A
C432        F433   1.358       .  S
C437        C438   1.407       .  A
C437        C442   1.397       .  A
C437        F444   1.358       .  S
C438        C439   1.406       .  A
C439        C440   1.400       .  A
C439        F446   1.358       .  S
C440        C441   1.410       .  A
C440        F445   1.358       .  S
C441        C442   1.408       .  A
C442        F443   1.357       .  S
C447        C448   1.408   1_565  A
C447        C452   1.408       .  A
C447        F454   1.356       .  S
C448        C449   1.418       .  A
C449        C450   1.396       .  A
C449        F456   1.357       .  S
C450        C451   1.404   1_545  A
C450        F455   1.359       .  S
C451        C452   1.414       .  A
C452        F453   1.358       .  S
C457        C458   1.410       .  A
C457        C462   1.395       .  A
C457        F464   1.358       .  S
C458        C459   1.413       .  A
C459        C460   1.400       .  A
C459        F466   1.358       .  S
C460        C461   1.404       .  A
C460        F465   1.358       .  S
C461        C462   1.405       .  A
C462        F463   1.358       .  S
C467        C468   1.408       .  A
C467        C472   1.397       .  A
C467        F474   1.357       .  S
C468        C469   1.409       .  A
C469        C470   1.398       .  A
C469        F476   1.355       .  S
C470        C471   1.405       .  A
C470        F475   1.358       .  S
C471        C472   1.407       .  A
C472        F473   1.358       .  S
C477        C478   1.409       .  A
C477        C482   1.394       .  A
C477        F484   1.358       .  S
C478        C479   1.410       .  A
C479        C480   1.403       .  A
C479        F486   1.358       .  S
C480        C481   1.408       .  A
C480        F485   1.358       .  S
C481        C482   1.406       .  A
C482        F483   1.357       .  S
C487        C488   1.406       .  A
C487        C492   1.396       .  A
C487        F494   1.358       .  S
C488        C489   1.404       .  A
C489        C490   1.398       .  A
C489        F496   1.357       .  S
C490        C491   1.411       .  A
C490        F495   1.358       .  S
C491        C492   1.411       .  A
C492        F493   1.358       .  S
C497        C498   1.401       .  A
C497        C502   1.397       .  A
C497        F504   1.358       .  S
C498        C499   1.401       .  A
C499        C500   1.396       .  A
C499        F506   1.358       .  S
C500        C501   1.406       .  A
C500        F505   1.358       .  S
C501        C502   1.409       .  A
C502        F503   1.358       .  S
C507        C508   1.417       .  A
C507        C512   1.398       .  A
C507        F514   1.357       .  S
C508        C509   1.411       .  A
C509        C510   1.407   1_545  A
C509        F516   1.357   1_545  S
C510        C511   1.413       .  A
C510        F515   1.358       .  S
C511        C512   1.405   1_565  A
C512        F513   1.358       .  S
C517        C518   1.407       .  A
C517        C522   1.401       .  A
C517        F524   1.358       .  S
C518        C519   1.405       .  A
C519        C520   1.392       .  A
C519        F526   1.358       .  S
C520        C521   1.408       .  A
C520        F525   1.357       .  S
C521        C522   1.410       .  A
C522        F523   1.358       .  S
C527        C528   1.416       .  A
C527        C532   1.401       .  A
C527        F534   1.358       .  S
C528        C529   1.412       .  A
C529        C530   1.408   1_655  A
C529        F536   1.357       .  S
C530        C531   1.412       .  A
C530        F535   1.357       .  S
C531        C532   1.406   1_455  A
C532        F533   1.358       .  S
C537        C538   1.410       .  A
C537        C542   1.404       .  A
C537        F544   1.358       .  S
C538        C539   1.406   1_455  A
C539        C540   1.395       .  A
C539        F546   1.358       .  S
C540        C541   1.415       .  A
C540        F545   1.357       .  S
C541        C542   1.409   1_655  A
C542        F543   1.354       .  S
C547        C548   1.413   1_655  A
C547        C552   1.405   1_655  A
C547        F554   1.358       .  S
C548        C549   1.409       .  A
C549        C550   1.398       .  A
C549        F556   1.358       .  S
C550        C551   1.415       .  A
C550        F555   1.358       .  S
C551        C552   1.407       .  A
C552        F553   1.354   1_455  S
C557        C558   1.411   1_556  A
C557        C562   1.410       .  A
C557        F564   1.356       .  S
C558        C559   1.414       .  A
C559        C560   1.395       .  A
C559        F566   1.357       .  S
C560        C561   1.405   1_554  A
C560        F565   1.359       .  S
C561        C562   1.409       .  A
C562        F563   1.357       .  S
C567        C568   1.420       .  A
C567        C572   1.397       .  A
C567        F574   1.357       .  S
C568        C569   1.408       .  A
C569        C570   1.405       .  A
C569        F576   1.358       .  S
C570        C571   1.409       .  A
C570        F575   1.357   1_554  S
C571        C572   1.396       .  A
C572        F573   1.358       .  S
C577        C578   1.414       .  A
C577        C582   1.396       .  A
C577        F584   1.357       .  S
C578        C579   1.408       .  A
C579        C580   1.401       .  A
C579        F586   1.358       .  S
C580        C581   1.406       .  A
C580        F585   1.358   1_655  S
C581        C582   1.398       .  A
C582        F583   1.359       .  S
C587        C588   1.408       .  A
C587        C592   1.399       .  A
C587        F594   1.357       .  S
C588        C589   1.408       .  A
C589        C590   1.393       .  A
C589        F596   1.357       .  S
C590        C591   1.406       .  A
C590        F595   1.358       .  S
C591        C592   1.407       .  A
C592        F593   1.358       .  S
C597        C598   1.414       .  A
C597        C602   1.398       .  A
C597        F604   1.358       .  S
C598        C599   1.410       .  A
C599        C600   1.393       .  A
C599        F606   1.358       .  S
C600        C601   1.403       .  A
C600        F605   1.358       .  S
C601        C602   1.402       .  A
C602        F603   1.358       .  S
C607        C608   1.410       .  A
C607        C612   1.400       .  A
C607        F614   1.358       .  S
C608        C609   1.409       .  A
C609        C610   1.392       .  A
C609        F616   1.358       .  S
C610        C611   1.405       .  A
C610        F615   1.357       .  S
C611        C612   1.407       .  A
C612        F613   1.358       .  S
C617        C618   1.418       .  A
C617        C622   1.394       .  A
C617        F624   1.357       .  S
C618        C619   1.408   1_455  A
C619        C620   1.405       .  A
C619        F626   1.357       .  S
C620        C621   1.412       .  A
C620        F625   1.357       .  S
C621        C622   1.403   1_655  A
C622        F623   1.359       .  S
C627        C628   1.406   1_565  A
C627        C632   1.395       .  A
C627        F634   1.359       .  S
C628        C629   1.412       .  A
C629        C630   1.407   1_545  A
C629        F636   1.357       .  S
C630        C631   1.411       .  A
C630        F635   1.357   1_565  S
C631        C632   1.415       .  A
C632        F633   1.357       .  S
C637        C638   1.405       .  A
C637        C642   1.396       .  A
C637        F644   1.358       .  S
C638        C639   1.407       .  A
C639        C640   1.393       .  A
C639        F646   1.358       .  S
C640        C641   1.407       .  A
C640        F645   1.358       .  S
C641        C642   1.410       .  A
C642        F643   1.358       .  S
C647        C648   1.408       .  A
C647        C652   1.397       .  A
C647        F654   1.358       .  S
C648        C649   1.408       .  A
C649        C650   1.395       .  A
C649        F656   1.358       .  S
C650        C651   1.408       .  A
C650        F655   1.357       .  S
C651        C652   1.408       .  A
C652        F653   1.357       .  S
C657        C658   1.407       .  A
C657        C662   1.396       .  A
C657        F664   1.358       .  S
C658        C659   1.411       .  A
C659        C660   1.396       .  A
C659        F666   1.358       .  S
C660        C661   1.404       .  A
C660        F665   1.358       .  S
C661        C662   1.408       .  A
C662        F663   1.358       .  S
C667        C668   1.409       .  A
C667        C672   1.399       .  A
C667        F674   1.358       .  S
C668        C669   1.411   1_554  A
C669        C670   1.403   1_556  A
C669        F676   1.358       .  S
C670        C671   1.411       .  A
C670        F675   1.358       .  S
C671        C672   1.412       .  A
C672        F673   1.358       .  S
C677        C678   1.402       .  A
C677        C682   1.395   1_554  A
C677        F684   1.358   1_554  S
C678        C679   1.411       .  A
C679        C680   1.406       .  A
C679        F686   1.357       .  S
C680        C681   1.411   1_554  A
C680        F685   1.358       .  S
C681        C682   1.416       .  A
C682        F683   1.358       .  S
C687        C688   1.405   1_545  A
C687        C692   1.396       .  A
C687        F694   1.359       .  S
C688        C689   1.408       .  A
C689        C690   1.407   1_565  A
C689        F696   1.358       .  S
C690        C691   1.412       .  A
C690        F695   1.356   1_545  S
C691        C692   1.414       .  A
C692        F693   1.357       .  S
C697        C698   1.404   1_565  A
C697        C702   1.399       .  A
C697        F704   1.359       .  S
C698        C699   1.406       .  A
C699        C700   1.406   1_545  A
C699        F706   1.357       .  S
C700        C701   1.413       .  A
C700        F705   1.355   1_565  S
C701        C702   1.416       .  A
C702        F703   1.357       .  S
C707        C708   1.414   1_556  A
C707        C712   1.405   1_556  A
C707        F714   1.358       .  S
C708        C709   1.406       .  A
C709        C710   1.398       .  A
C709        F716   1.358       .  S
C710        C711   1.417       .  A
C710        F715   1.358       .  S
C711        C712   1.407       .  A
C712        F713   1.355   1_554  S
C717        C718   1.405   1_556  A
C717        C722   1.396       .  A
C717        F724   1.358       .  S
C718        C719   1.413       .  A
C719        C720   1.409   1_554  A
C719        F726   1.358       .  S
C720        C721   1.410       .  A
C720        F725   1.355   1_556  S
C721        C722   1.417       .  A
C722        F723   1.357       .  S
C727        C728   1.417       .  A
C727        C732   1.396       .  A
C727        F734   1.356       .  S
C728        C729   1.407       .  A
C729        C730   1.404       .  A
C729        F736   1.358       .  S
C730        C731   1.408       .  A
C730        F735   1.358   1_455  S
C731        C732   1.397       .  A
C732        F733   1.358       .  S
C737        C738   1.407       .  A
C737        C742   1.401       .  A
C737        F744   1.358   1_545  S
C738        C739   1.397       .  A
C739        C740   1.397       .  A
C739        F746   1.358       .  S
C740        C741   1.416       .  A
C740        F745   1.356       .  S
C741        C742   1.407       .  A
C742        F743   1.358       .  S
C747        C748   1.414       .  A
C747        C752   1.392       .  A
C747        F754   1.358       .  S
C748        C749   1.409       .  A
C749        C750   1.411   1_556  A
C749        F756   1.356   1_556  S
C750        C751   1.412   1_554  A
C750        F755   1.357       .  S
C751        C752   1.404       .  A
C752        F753   1.359       .  S
C757        C758   1.409       .  A
C757        C762   1.396       .  A
C757        F764   1.358       .  S
C758        C759   1.406       .  A
C759        C760   1.390       .  A
C759        F766   1.358       .  S
C760        C761   1.404       .  A
C760        F765   1.357       .  S
C761        C762   1.405       .  A
C762        F763   1.358       .  S
C767        C768   1.407       .  A
C767        C772   1.397       .  A
C767        F774   1.358       .  S
C768        C769   1.406       .  A
C769        C770   1.391       .  A
C769        F776   1.358       .  S
C770        C771   1.408       .  A
C770        F775   1.356       .  S
C771        C772   1.409       .  A
C772        F773   1.358       .  S
C777        C778   1.403       .  A
C777        C782   1.395       .  A
C777        F784   1.357       .  S
C778        C779   1.404       .  A
C779        C780   1.391       .  A
C779        F786   1.358       .  S
C780        C781   1.407       .  A
C780        F785   1.358       .  S
C781        C782   1.408       .  A
C782        F783   1.358       .  S
C787        C788   1.409       .  A
C787        C792   1.402       .  A
C787        F794   1.357       .  S
C788        C789   1.420       .  A
C789        C790   1.399       .  A
C789        F796   1.357       .  S
C790        C791   1.397       .  A
C790        F795   1.358       .  S
C791        C792   1.406       .  A
C792        F793   1.358   1_556  S
C797        C798   1.412       .  A
C797        C802   1.391       .  A
C797        F804   1.357       .  S
C798        C799   1.410   1_655  A
C799        C800   1.407       .  A
C799        F806   1.354       .  S
C800        C801   1.409       .  A
C800        F805   1.358       .  S
C801        C802   1.404   1_455  A
C802        F803   1.359       .  S
C807        C808   1.412       .  A
C807        C812   1.399       .  A
C807        F814   1.358       .  S
C808        C809   1.413       .  A
C809        C810   1.394       .  A
C809        F816   1.357       .  S
C810        C811   1.401       .  A
C810        F815   1.358       .  S
C811        C812   1.405       .  A
C812        F813   1.358       .  S
C817        C818   1.410       .  A
C817        C822   1.394       .  A
C817        F824   1.358       .  S
C818        C819   1.411       .  A
C819        C820   1.397       .  A
C819        F826   1.358       .  S
C820        C821   1.403       .  A
C820        F825   1.358       .  S
C821        C822   1.403       .  A
C822        F823   1.359       .  S
C827        C828   1.407       .  A
C827        C832   1.405       .  A
C827        F834   1.358       .  S
C828        C829   1.417       .  A
C829        C830   1.399       .  A
C829        F836   1.357       .  S
C830        C831   1.398       .  A
C830        F835   1.358       .  S
C831        C832   1.409       .  A
C832        F833   1.358   1_565  S
C837        C838   1.404       .  A
C837        C842   1.391       .  A
C837        F844   1.357       .  S
C838        C839   1.407       .  A
C839        C840   1.401       .  A
C839        F846   1.358       .  S
C840        C841   1.409       .  A
C840        F845   1.358       .  S
C841        C842   1.409       .  A
C842        F843   1.358       .  S
C847        C848   1.407       .  A
C847        C852   1.396       .  A
C847        F854   1.359       .  S
C848        C849   1.409       .  A
C849        C850   1.410       .  A
C849        F856   1.357       .  S
C850        C851   1.412       .  A
C850        F855   1.356       .  S
C851        C852   1.413       .  A
C852        F853   1.358       .  S
C857        C858   1.403       .  A
C857        C862   1.393       .  A
C857        F864   1.359       .  S
C858        C859   1.411       .  A
C859        C860   1.411       .  A
C859        F866   1.358       .  S
C860        C861   1.411       .  A
C860        F865   1.356       .  S
C861        C862   1.414       .  A
C862        F863   1.355       .  S
C867        C868   1.413       .  A
C867        C872   1.409       .  A
C867        F874   1.357       .  S
C868        C869   1.405       .  A
C869        C870   1.397       .  A
C869        F876   1.358       .  S
C870        C871   1.417       .  A
C870        F875   1.358       .  S
C871        C872   1.411       .  A
C872        F873   1.357       .  S
C877        C878   1.413       .  A
C877        C882   1.411       .  A
C877        F884   1.357       .  S
C878        C879   1.408       .  A
C879        C880   1.399       .  A
C879        F886   1.358       .  S
C880        C881   1.416       .  A
C880        F885   1.358       .  S
C881        C882   1.412       .  A
C882        F883   1.357       .  S
C887        C888   1.395       .  A
C887        C892   1.396       .  A
C887        F894   1.358       .  S
C888        C889   1.406       .  A
C889        C890   1.399       .  A
C889        F896   1.358       .  S
C890        C891   1.409       .  A
C890        F895   1.358       .  S
C891        C892   1.418       .  A
C892        F893   1.357       .  S
C897        C898   1.408       .  A
C897        C902   1.403       .  A
C897        F904   1.357       .  S
C898        C899   1.413       .  A
C899        C900   1.399       .  A
C899        F906   1.358       .  S
C900        C901   1.402       .  A
C900        F905   1.358       .  S
C901        C902   1.406       .  A
C902        F903   1.358       .  S
C907        C908   1.405       .  A
C907        C912   1.400       .  A
C907        F914   1.358       .  S
C908        C909   1.413       .  A
C909        C910   1.405       .  A
C909        F916   1.358       .  S
C910        C911   1.409       .  A
C910        F915   1.355       .  S
C911        C912   1.417       .  A
C912        F913   1.358       .  S
C917        C918   1.405       .  A
C917        C922   1.405       .  A
C917        F924   1.356       .  S
C918        C919   1.419       .  A
C919        C920   1.394       .  A
C919        F926   1.358       .  S
C920        C921   1.403       .  A
C920        F925   1.359       .  S
C921        C922   1.415       .  A
C922        F923   1.358       .  S
C927        C928   1.409       .  A
C927        C932   1.407       .  A
C927        F934   1.355       .  S
C928        C929   1.415       .  A
C929        C930   1.395       .  A
C929        F936   1.358       .  S
C930        C931   1.403       .  A
C930        F935   1.359       .  S
C931        C932   1.410       .  A
C932        F933   1.358       .  S
C937        C938   1.413       .  A
C937        C942   1.405       .  A
C937        F944   1.354       .  S
C938        C939   1.414       .  A
C939        C940   1.398       .  A
C939        F946   1.357       .  S
C940        C941   1.404       .  A
C940        F945   1.358       .  S
C941        C942   1.405       .  A
C942        F943   1.358       .  S
C947        C948   1.409       .  A
C947        C952   1.408       .  A
C947        F954   1.358       .  S
C948        C949   1.402       .  A
C949        C950   1.397       .  A
C949        F956   1.358       .  S
C950        C951   1.411       .  A
C950        F955   1.358       .  S
C951        C952   1.408       .  A
C952        F953   1.358       .  S
C957        C958   1.399       .  A
C957        C962   1.402       .  A
C957        F964   1.358       .  S
C958        C959   1.408       .  A
C959        C960   1.403       .  A
C959        F966   1.358       .  S
C960        C961   1.408       .  A
C960        F965   1.357       .  S
C961        C962   1.418       .  A
C962        F963   1.357       .  S
C967        C968   1.409       .  A
C967        C972   1.404       .  A
C967        F974   1.357       .  S
C968        C969   1.417       .  A
C969        C970   1.395       .  A
C969        F976   1.358       .  S
C970        C971   1.404       .  A
C970        F975   1.359       .  S
C971        C972   1.411       .  A
C972        F973   1.358       .  S
C977        C978   1.415       .  A
C977        C982   1.396       .  A
C977        F984   1.357       .  S
C978        C979   1.412       .  A
C979        C980   1.404       .  A
C979        F986   1.358       .  S
C980        C981   1.410       .  A
C980        F985   1.357       .  S
C981        C982   1.405       .  A
C982        F983   1.358       .  S
C987        C988   1.401       .  A
C987        C992   1.394       .  A
C987        F994   1.358       .  S
C988        C989   1.414       .  A
C989        C990   1.402       .  A
C989        F996   1.358       .  S
C990        C991   1.406       .  A
C990        F995   1.355       .  S
C991        C992   1.418       .  A
C992        F993   1.358       .  S
C997        C998   1.409       .  A
C997       C1002   1.396       .  A
C997       F1004   1.359       .  S
C998        C999   1.411       .  A
C999       C1000   1.406       .  A
C999       F1006   1.358       .  S
C1000      C1001   1.409       .  A
C1000      F1005   1.354       .  S
C1001      C1002   1.414       .  A
C1002      F1003   1.357       .  S
C1007      C1008   1.404       .  A
C1007      C1012   1.397       .  A
C1007      F1014   1.358       .  S
C1008      C1009   1.411       .  A
C1009      C1010   1.405       .  A
C1009      F1016   1.357       .  S
C1010      C1011   1.410       .  A
C1010      F1015   1.357       .  S
C1011      C1012   1.415       .  A
C1012      F1013   1.358       .  S
C1017      C1018   1.414       .  A
C1017      C1022   1.410       .  A
C1017      F1024   1.358       .  S
C1018      C1019   1.408       .  A
C1019      C1020   1.395       .  A
C1019      F1026   1.359       .  S
C1020      C1021   1.415       .  A
C1020      F1025   1.358       .  S
C1021      C1022   1.411       .  A
C1022      F1023   1.357       .  S
C1027      C1028   1.407       .  A
C1027      C1032   1.407       .  A
C1027      F1034   1.357       .  S
C1028      C1029   1.412       .  A
C1029      C1030   1.398       .  A
C1029      F1036   1.357       .  S
C1030      C1031   1.401       .  A
C1030      F1035   1.358       .  S
C1031      C1032   1.409       .  A
C1032      F1033   1.358       .  S
C1037      C1038   1.410       .  A
C1037      C1042   1.403       .  A
C1037      F1044   1.358       .  S
C1038      C1039   1.418       .  A
C1039      C1040   1.400       .  A
C1039      F1046   1.357       .  S
C1040      C1041   1.399       .  A
C1040      F1045   1.358       .  S
C1041      C1042   1.407       .  A
C1042      F1043   1.358       .  S
C1047      C1048   1.412       .  A
C1047      C1052   1.404       .  A
C1047      F1054   1.357       .  S
C1048      C1049   1.405       .  A
C1049      C1050   1.395       .  A
C1049      F1056   1.359       .  S
C1050      C1051   1.415       .  A
C1050      F1055   1.357       .  S
C1051      C1052   1.408       .  A
C1052      F1053   1.356       .  S
C1057      C1058   1.411       .  A
C1057      C1062   1.398       .  A
C1057      F1064   1.358       .  S
C1058      C1059   1.412       .  A
C1059      C1060   1.409       .  A
C1059      F1066   1.357       .  S
C1060      C1061   1.410       .  A
C1060      F1065   1.356       .  S
C1061      C1062   1.411       .  A
C1062      F1063   1.357       .  S
C1067      C1068   1.405       .  A
C1067      C1072   1.395       .  A
C1067      F1074   1.359       .  S
C1068      C1069   1.409       .  A
C1069      C1070   1.414       .  A
C1069      F1076   1.357       .  S
C1070      C1071   1.414       .  A
C1070      F1075   1.355       .  S
C1071      C1072   1.416       .  A
C1072      F1073   1.358       .  S
C1077      C1078   1.410       .  A
C1077      C1082   1.412       .  A
C1077      F1084   1.357       .  S
C1078      C1079   1.410       .  A
C1079      C1080   1.397       .  A
C1079      F1086   1.357       .  S
C1080      C1081   1.409       .  A
C1080      F1085   1.359       .  S
C1081      C1082   1.413       .  A
C1082      F1083   1.357       .  S
