geometry optimzed in LAMMPS
_audit_creation_date              2020-11-30 
_audit_creation_method            'lammps2cif' 
_symmetry_space_group_name_H-M    'P1' 
_symmetry_Int_Tables_number       1 
_symmetry_cell_setting            triclinic 
loop_ 
_symmetry_equiv_pos_as_xyz 
  x,y,z 
_cell_length_a                    76.50305717 
_cell_length_b                    27.698263048092468 
_cell_length_c                    31.52595804579888 
_cell_angle_alpha                 90.491176069692 
_cell_angle_beta                  89.19950329102485 
_cell_angle_gamma                 90.46956238177998 
loop_ 
_atom_site_label 
_atom_site_type_symbol 
_atom_site_fract_x 
_atom_site_fract_y 
_atom_site_fract_z 
_atom_site_charge 
N1          N  0.62368818  0.24311406  0.42692538    -0.26500
N2          N  0.64021894  0.23387431  0.43523349    -0.34400
C3          C  0.64080110  0.20353722  0.46824400     0.01800
C4          C  0.62385072  0.19266004  0.48104428     0.07800
C5          C  0.61333389  0.21887186  0.45444596    -0.05300
H6          H  0.65270875  0.19067516  0.48224686     0.08500
H7          H  0.59925704  0.22175349  0.45591832     0.09700
Cu8        Cu  0.66136289  0.26383411  0.40229358     0.44200
Cu9        Cu  0.61599061  0.28984235  0.37967701     0.42000
Cu10       Cu  0.65107708  0.35634127  0.32714686     0.43900
N11         N  0.68011016  0.29856674  0.36479109    -0.33900
N12         N  0.67632343  0.33301860  0.33772858    -0.28200
C13         C  0.69108466  0.34747138  0.31770466    -0.04300
C14         C  0.70486852  0.32118555  0.33321896     0.07900
C15         C  0.69741001  0.29018251  0.36268276     0.01700
H16         H  0.69160565  0.37406869  0.29282831     0.09400
H17         H  0.70408128  0.26344515  0.38117889     0.08500
N18         N  0.62480933  0.36525737  0.31416479    -0.35400
N19         N  0.61207518  0.33974024  0.33202371    -0.27600
C20         C  0.59687988  0.35116686  0.31380969    -0.02800
C21         C  0.60019342  0.38525905  0.28271126     0.05800
C22         C  0.61803964  0.39394131  0.28448520     0.03900
H23         H  0.58436563  0.33504838  0.32196990     0.09000
H24         H  0.62565672  0.41913633  0.26594984     0.07900
N25         N  0.60820104  0.92633382  0.78501686    -0.26500
N26         N  0.62442021  0.94286397  0.78781168    -0.34400
C27         C  0.62719656  0.97678777  0.75837791     0.01800
C28         C  0.61225210  0.98112685  0.73485989     0.07800
C29         C  0.60029727  0.94925609  0.75299464    -0.05300
H30         H  0.63960129  0.99482187  0.75294410     0.08500
H31         H  0.58727963  0.94101839  0.74192142     0.09700
Cu32       Cu  0.64405947  0.91068398  0.82124425     0.44200
Cu33       Cu  0.59873836  0.86886469  0.82147454     0.42000
Cu34       Cu  0.63411263  0.79331685  0.85865527     0.43900
N35         N  0.66316135  0.86188582  0.83637370    -0.33900
N36         N  0.65948344  0.81769262  0.84923321    -0.28200
C37         C  0.67447822  0.79359561  0.85437277    -0.04300
C38         C  0.68823902  0.82391852  0.84328105     0.07900
C39         C  0.68058855  0.86713109  0.83257153     0.01700
H40         H  0.67523153  0.75723580  0.86630647     0.09400
H41         H  0.68719077  0.89970996  0.82221481     0.08500
N42         N  0.60789482  0.77976076  0.87080484    -0.35400
N43         N  0.59493824  0.80763768  0.85890394    -0.27600
C44         C  0.57985309  0.79013065  0.87549440    -0.02800
C45         C  0.58348772  0.74870544  0.89829176     0.05800
C46         C  0.60143489  0.74373983  0.89466239     0.03900
H47         H  0.56741072  0.80772513  0.87255265     0.09000
H48         H  0.60933199  0.71637174  0.90917351     0.07900
N49         N  0.39263812  0.17900398  0.77860736    -0.26500
N50         N  0.37612375  0.16465101  0.77748338    -0.34400
C51         C  0.37425781  0.13143954  0.74661925     0.01800
C52         C  0.39035087  0.12402797  0.72733601     0.07800
C53         C  0.40171521  0.15516408  0.74817175    -0.05300
H54         H  0.36193981  0.11485154  0.73799946     0.08500
H55         H  0.41531179  0.16201424  0.74048453     0.09700
Cu56       Cu  0.35618153  0.19311418  0.81452951     0.44200
Cu57       Cu  0.40161330  0.23250492  0.82001420     0.42000
Cu58       Cu  0.36710940  0.29122650  0.88297337     0.43900
N59         N  0.33769200  0.22961436  0.85047914    -0.33900
N60         N  0.34168138  0.26628157  0.87569699    -0.28200
C61         C  0.32688881  0.28370902  0.89334668    -0.04300
C62         C  0.31299173  0.25626909  0.87875589     0.07900
C63         C  0.32026964  0.22274646  0.85119906     0.01700
H64         H  0.32624467  0.31493978  0.91411689     0.09400
H65         H  0.31338598  0.19618532  0.83227157     0.08500
N66         N  0.39352883  0.30760017  0.88760348    -0.35400
N67         N  0.40610200  0.28652137  0.86514095    -0.27600
C68         C  0.42162996  0.30433333  0.87782778    -0.02800
C69         C  0.41865698  0.33863971  0.90932288     0.05800
C70         C  0.40070778  0.33910947  0.91507213     0.03900
H71         H  0.43419384  0.29254958  0.86561546     0.06000
H72         H  0.39336984  0.35885336  0.93896564     0.07900
N73         N  0.39795052  0.87184100  0.40880658    -0.26500
N74         N  0.38115690  0.88223373  0.41267994    -0.34400
C75         C  0.37833829  0.90578595  0.44942249     0.01800
C76         C  0.39402423  0.91023441  0.47008007     0.07800
C77         C  0.40629996  0.88905134  0.44324030    -0.05300
H78         H  0.36582865  0.91995754  0.45966746     0.08500
H79         H  0.42022704  0.88662295  0.44823783     0.09700
Cu80       Cu  0.36232470  0.86554086  0.36874037     0.44200
Cu81       Cu  0.40832222  0.83477744  0.35650525     0.42000
Cu82       Cu  0.37594148  0.80466195  0.27518130     0.43900
N83         N  0.34488399  0.84067728  0.32427157    -0.33900
N84         N  0.34987462  0.81774121  0.28935007    -0.28200
C85         C  0.33562367  0.80096156  0.26931077    -0.04300
C86         C  0.32098154  0.81471723  0.29257427     0.07900
C87         C  0.32736143  0.83931347  0.32746421     0.01700
H88         H  0.33597459  0.77762131  0.24164688     0.09400
H89         H  0.31987884  0.85271809  0.35438539     0.08500
N90         N  0.40209837  0.78597767  0.27167944    -0.35400
N91         N  0.41379578  0.79546542  0.30122688    -0.27600
C92         C  0.42885777  0.77328237  0.29048171    -0.02800
C93         C  0.42638739  0.74842036  0.25273273     0.05800
C94         C  0.40940326  0.75795204  0.24143986     0.03900
H95         H  0.44049562  0.77353025  0.30960775     0.09000
H96         H  0.40262525  0.74436814  0.21387343     0.07900
C97         C  0.50831121  0.52395152  0.08539342    -0.01700
N98         N  0.91448480  0.41256989  0.37057699    -0.26500
N99         N  0.89872149  0.43152360  0.36885619    -0.34400
C100        C  0.89634015  0.46129888  0.40215413     0.01800
C101        C  0.91127546  0.46144912  0.42636927     0.07800
C102        C  0.92253389  0.42980906  0.40546560    -0.05300
H103        H  0.88412849  0.47901064  0.40985856     0.08500
H104        H  0.93501327  0.41726441  0.41634669     0.09700
Cu105      Cu  0.87951910  0.40892446  0.32752165     0.44200
Cu106      Cu  0.92293508  0.35996638  0.32741274     0.42000
Cu107      Cu  0.88821258  0.30864806  0.25954643     0.43900
N108        N  0.86002659  0.37152927  0.29614529    -0.33900
N109        N  0.86299511  0.33326952  0.27186127    -0.28200
C110        C  0.84753384  0.31340693  0.26085494    -0.04300
C111        C  0.83431242  0.34072170  0.27921965     0.07900
C112        C  0.84270197  0.37722602  0.30122172     0.01700
H113        H  0.84604567  0.28038285  0.24265764     0.09400
H114        H  0.83667213  0.40416273  0.32157657     0.08500
N115        N  0.91461979  0.29144969  0.25450959    -0.35400
N116        N  0.92705764  0.30910858  0.27916845    -0.27600
C117        C  0.94234587  0.28831082  0.26821813    -0.02800
C118        C  0.93944109  0.25686666  0.23468144     0.05800
C119        C  0.92172072  0.25934618  0.22718935     0.03900
H120        H  0.95461161  0.29489170  0.28403214     0.09000
H121        H  0.91438891  0.23799668  0.20458614     0.07900
N122        N  0.89850591  0.66654715  0.76965835    -0.26500
N123        N  0.88200496  0.65402583  0.76349065    -0.34400
C124        C  0.88108903  0.62611616  0.72849253     0.01800
C125        C  0.89773033  0.62154454  0.71130944     0.07800
C126        C  0.90849473  0.64711736  0.73848756    -0.05300
H127        H  0.86904062  0.61249931  0.71520182     0.08500
H128        H  0.92235095  0.65393059  0.73425659     0.09700
Cu129      Cu  0.86095137  0.68298729  0.79710735     0.44200
Cu130      Cu  0.90627776  0.71544803  0.81626376     0.42000
Cu131      Cu  0.87127085  0.78426785  0.86526401     0.43900
N132        N  0.84214667  0.72624820  0.82622877    -0.33900
N133        N  0.84602968  0.76387404  0.85052880    -0.28200
C134        C  0.83120492  0.78632086  0.86234056    -0.04300
C135        C  0.81735970  0.76173374  0.84444637     0.07900
C136        C  0.82468466  0.72372235  0.82194670     0.01700
H137        H  0.83059378  0.81853125  0.88192370     0.09400
H138        H  0.81787715  0.69709291  0.80292707     0.08500
N139        N  0.89743728  0.79693917  0.87677511    -0.35400
N140        N  0.91023094  0.77105118  0.85991042    -0.27600
C141        C  0.92554506  0.78751424  0.87494586    -0.02800
C142        C  0.92228259  0.82634243  0.90193958     0.05800
C143        C  0.90426073  0.83077672  0.90261794     0.03900
H144        H  0.93801954  0.77137084  0.86745341     0.09000
H145        H  0.89662722  0.85664651  0.92070531     0.07900
N146        N  0.11827016  0.63656686  0.38456438    -0.26500
N147        N  0.13491099  0.62540831  0.38914173    -0.34400
C148        C  0.13705305  0.60538260  0.42729387     0.01800
C149        C  0.12106086  0.60418026  0.44795575     0.07800
C150        C  0.10934296  0.62356555  0.41986179    -0.05300
H151        H  0.14936185  0.59225425  0.43896398     0.08500
H152        H  0.09541927  0.62803973  0.42475954     0.09700
Cu153      Cu  0.15439590  0.63895535  0.34479539     0.44200
Cu154      Cu  0.10888210  0.66986489  0.33067286     0.42000
Cu155      Cu  0.14285431  0.70655947  0.25411000     0.43900
N156        N  0.17269440  0.66532614  0.30204816    -0.33900
N157        N  0.16853398  0.69169741  0.26903405    -0.28200
C158        C  0.18327170  0.70967155  0.25125573    -0.04300
C159        C  0.19733109  0.69304944  0.27387910     0.07900
C160        C  0.19014831  0.66546657  0.30605875     0.01700
H161        H  0.18366042  0.73538517  0.22562126     0.09400
H162        H  0.19699928  0.64994622  0.33240020     0.08500
N163        N  0.11637234  0.71879017  0.24692466    -0.35400
N164        N  0.10401915  0.70563838  0.27435643    -0.27600
C165        C  0.08858716  0.72283418  0.26140498    -0.02800
C166        C  0.09137266  0.74749535  0.22388120     0.05800
C167        C  0.10914117  0.74463690  0.21597657     0.03900
H168        H  0.07651219  0.72045990  0.27950633     0.09000
H169        H  0.11642159  0.76235777  0.19083647     0.07900
N170        N  0.11025479  0.38987504  0.78445796    -0.26500
N171        N  0.12573488  0.41097103  0.78795023    -0.34400
C172        C  0.12848676  0.43993355  0.75459524     0.01800
C173        C  0.11406506  0.43729064  0.72871065     0.07800
C174        C  0.10281309  0.40469531  0.74840899    -0.05300
H175        H  0.14045130  0.46002470  0.74870237     0.08500
H176        H  0.09065035  0.39042026  0.73645245     0.09700
Cu177      Cu  0.14377992  0.39519456  0.83387850     0.44200
Cu178      Cu  0.10050583  0.33991153  0.82777071     0.42000
Cu179      Cu  0.13158675  0.30678262  0.90956108     0.43900
N180        N  0.16140055  0.36586578  0.87530451    -0.33900
N181        N  0.15700141  0.33240302  0.90311688    -0.28200
C182        C  0.17159615  0.31554198  0.92094472    -0.04300
C183        C  0.18585240  0.34013582  0.90386850     0.07900
C184        C  0.17886629  0.37130044  0.87464878     0.01700
H185        H  0.17191749  0.28549462  0.94259571     0.09400
H186        H  0.18599329  0.39294375  0.85175791     0.08500
N187        N  0.10600680  0.28180343  0.90688002    -0.35400
N188        N  0.09472327  0.29275711  0.87707172    -0.27600
C189        C  0.07985856  0.26725343  0.88362115    -0.02800
C190        C  0.08205090  0.23879610  0.91895169     0.05800
C191        C  0.09864323  0.24935974  0.93310648     0.03900
H192        H  0.06857928  0.26801141  0.86328793     0.09000
H193        H  0.10513642  0.23341357  0.95980517     0.07900
C194        C  0.01253776  0.99579812  0.08968161    -0.01700
C195        C  0.06408474  0.11906741  0.95703409    -0.11100
C196        C  0.04907569  0.13361471  0.97955832     0.11500
C197        C  0.04406074  0.18268096  0.97933147    -0.02900
C198        C  0.05481419  0.21621170  0.95766620    -0.05700
C199        C  0.07010319  0.20158031  0.93622492    -0.16400
C200        C  0.07436250  0.15202329  0.93393751     0.02500
C201        C  0.03987525  0.09682942  0.00574418     0.12400
C202        C  0.02757900  0.19929322  0.00227243     0.63100
H203        H  0.05168232  0.25428021  0.95843199     0.12500
C204        C  0.08936854  0.13385729  0.90622346     0.55200
H205        H  0.06787384  0.08151624  0.95827674     0.08300
C206        C  0.03076150  0.05750811  0.98744641    -0.05600
C207        C  0.02424730  0.02125111  0.01444704    -0.06300
C208        C  0.02591574  0.02424824  0.05931375    -0.15900
C209        C  0.03999465  0.05447179  0.07328777    -0.01500
C210        C  0.04353430  0.09601119  0.04911963    -0.09000
C211        C  0.02718239  0.05496768  0.94013603     0.65300
H212        H  0.01734769  0.99128434  0.00020247     0.10700
C213        C  0.05728985  0.03293936  0.08783395     0.63700
H214        H  0.05268326  0.12281411  0.06105441     0.08100
F215        F  0.08957552  0.08392547  0.90385900    -0.19400
F216        F  0.10517514  0.14927201  0.92231105    -0.15600
F217        F  0.08763594  0.15120018  0.86547864    -0.19100
F218        F  0.02918995  0.19281711  0.04545833    -0.22500
F219        F  0.01338235  0.17279137  0.98811096    -0.24000
F220        F  0.02432537  0.24763838  0.99525906    -0.18000
F221        F  0.06611353  0.01429824  0.05281273    -0.20400
F222        F  0.05556199  0.99669499  0.11676979    -0.21600
F223        F  0.06780377  0.06809293  0.10618577    -0.18800
F224        F  0.01581002  0.01756914  0.93011049    -0.18900
F225        F  0.04255431  0.04767377  0.91759239    -0.22700
F226        F  0.01972877  0.09760195  0.92719365    -0.24300
C227        C  0.03196671  0.90119686  0.16875270    -0.11100
C228        C  0.04548821  0.88238046  0.14366570     0.11500
C229        C  0.04639579  0.89356975  0.10025310    -0.02900
C230        C  0.03506914  0.92878830  0.08482645    -0.05700
C231        C  0.02296338  0.95423588  0.11136365    -0.16400
C232        C  0.01974579  0.93398804  0.15276578     0.02500
C233        C  0.05766998  0.84821633  0.16348210     0.12400
C234        C  0.05921782  0.86834012  0.07039743     0.63100
H235        H  0.03587512  0.93734938  0.05150858     0.12500
C236        C  0.00308281  0.94097892  0.17908957     0.55200
H237        H  0.03083897  0.88873380  0.20116555     0.08300
C238        C  0.07260394  0.86448968  0.18562536    -0.05600
C239        C  0.08328528  0.83014257  0.20471640    -0.06300
C240        C  0.07924054  0.78071451  0.20313286    -0.15900
C241        C  0.06420440  0.76444259  0.18143236    -0.01500
C242        C  0.05357410  0.79878654  0.16195089    -0.09000
C243        C  0.07716794  0.91782358  0.18933237     0.65300
H244        H  0.09485616  0.84164288  0.22158551     0.10700
C245        C  0.05965589  0.71115146  0.17812060     0.63700
H246        H  0.04189304  0.78743674  0.14545812     0.08100
F247        F  0.00270486  0.98600112  0.19802379    -0.19400
F248        F  0.00165716  0.90755735  0.21143316    -0.15600
F249        F  0.98866789  0.93394425  0.15394540    -0.19100
F250        F  0.05529961  0.81956447  0.06867602    -0.22500
F251        F  0.07610993  0.87440602  0.08457860    -0.24000
F252        F  0.05853234  0.88624135  0.02958898    -0.18000
F253        F  0.05595544  0.69310264  0.21799723    -0.20400
F254        F  0.07360066  0.68628616  0.16040939    -0.21600
F255        F  0.04520738  0.70299254  0.15299178    -0.18800
F256        F  0.09212956  0.92559375  0.21273095    -0.18900
F257        F  0.06361949  0.94227423  0.20918364    -0.22700
F258        F  0.08002506  0.93685217  0.14947887    -0.24300
C259        C  0.12149062  0.57803494  0.56563581    -0.11100
C260        C  0.11369318  0.53210259  0.56628625     0.11500
C261        C  0.10648041  0.51230303  0.52880040    -0.02900
C262        C  0.10843412  0.53819617  0.49081071    -0.05700
C263        C  0.11737033  0.58255541  0.48966724    -0.16400
C264        C  0.12360036  0.60366580  0.52765118     0.02500
C265        C  0.11358668  0.50551177  0.60681736     0.12400
C266        C  0.09711293  0.46375914  0.52888753     0.63100
H267        H  0.10359473  0.52317091  0.46134678     0.12500
C268        C  0.13240306  0.65297272  0.52800358     0.55200
H269        H  0.12645546  0.59288192  0.59504568     0.08300
C270        C  0.12825843  0.47896383  0.61982528    -0.05600
C271        C  0.12739914  0.45531737  0.65901118    -0.06300
C272        C  0.11277094  0.45932359  0.68621494    -0.15900
C273        C  0.09836857  0.48768147  0.67386525    -0.01500
C274        C  0.09896620  0.50976946  0.63380962    -0.09000
C275        C  0.14501401  0.47739253  0.59333328     0.65300
H276        H  0.13844132  0.43445660  0.66935648     0.10700
C277        C  0.08290537  0.49698809  0.70343946     0.63700
H278        H  0.08814538  0.53149165  0.62344437     0.08100
F279        F  0.14817743  0.65087419  0.50621123    -0.19400
F280        F  0.13565858  0.66904039  0.56887397    -0.15600
F281        F  0.12174260  0.68625167  0.50889627    -0.19100
F282        F  0.08314859  0.46498755  0.55715953    -0.22500
F283        F  0.10846858  0.42793659  0.54079839    -0.24000
F284        F  0.09072316  0.45184023  0.48924649    -0.18000
F285        F  0.07179222  0.53134231  0.68740164    -0.20400
F286        F  0.08874846  0.51364736  0.74227352    -0.21600
F287        F  0.07336242  0.45497193  0.70909003    -0.18800
F288        F  0.15736321  0.44758276  0.61092426    -0.18900
F289        F  0.15217345  0.52327142  0.59066742    -0.22700
F290        F  0.14159724  0.46045870  0.55291643    -0.24300
C291        C  0.97362865  0.97545333  0.00960784    -0.11100
C292        C  0.97201836  0.92539456  0.00895816     0.11500
C293        C  0.98340975  0.89735296  0.03292765    -0.02900
C294        C  0.99550087  0.92088455  0.05924897    -0.05700
C295        C  0.99788229  0.97205048  0.06036655    -0.16400
C296        C  0.98624408  0.99981530  0.03398773     0.02500
C297        C  0.95862357  0.90313886  0.98135195     0.12400
C298        C  0.98314411  0.84243988  0.02958642     0.63100
H299        H  0.00307537  0.89784213  0.07892903     0.12500
C300        C  0.98568613  0.05479026  0.02888781     0.55200
H301        H  0.96483715  0.99602453  0.99013691     0.08300
C302        C  0.94148225  0.89296675  0.99619206    -0.05600
C303        C  0.93005786  0.86758881  0.96926463    -0.06300
C304        C  0.93494499  0.85491636  0.92744163    -0.15900
C305        C  0.95144532  0.87061243  0.91123840    -0.01500
C306        C  0.96323019  0.89306125  0.93910829    -0.09000
C307        C  0.93521166  0.91009748  0.03970463     0.65300
H308        H  0.91719379  0.85724216  0.98088221     0.10700
C309        C  0.95668310  0.86592464  0.86475386     0.63700
H310        H  0.97622784  0.90304300  0.92800617     0.08100
F311        F  0.96926324  0.07099118  0.04083154    -0.19400
F312        F  0.98839822  0.06587542  0.98657924    -0.15600
F313        F  0.99772279  0.08080166  0.05189085    -0.19100
F314        F  0.98691380  0.82857586  0.98824968    -0.22500
F315        F  0.96686615  0.82445890  0.04096398    -0.24000
F316        F  0.99535635  0.82146835  0.05552170    -0.18000
F317        F  0.96920097  0.90019829  0.85383576    -0.20400
F318        F  0.94247398  0.87300079  0.83891827    -0.21600
F319        F  0.96363286  0.82078549  0.85700931    -0.18800
F320        F  0.91803247  0.89658599  0.04780754    -0.18900
F321        F  0.93624478  0.95992186  0.04183075    -0.22700
F322        F  0.94544288  0.89105432  0.07110475    -0.24300
C323        C  0.96812180  0.18729891  0.15637597    -0.11100
C324        C  0.97296202  0.14792255  0.18121021     0.11500
C325        C  0.96802805  0.14679227  0.22481816    -0.02900
C326        C  0.95745587  0.18393376  0.24122486    -0.05700
C327        C  0.95182761  0.22182831  0.21581270    -0.16400
C328        C  0.95760488  0.22458048  0.17306570     0.02500
C329        C  0.98274771  0.10824868  0.16004626     0.12400
C330        C  0.97311989  0.10742369  0.25549500     0.63100
H331        H  0.95318206  0.18271482  0.27415347     0.12500
C332        C  0.95289801  0.26711962  0.14560563     0.55200
H333        H  0.97233876  0.18795726  0.12343900     0.08300
C334        C  0.97418949  0.06732640  0.14352472    -0.05600
C335        C  0.98431632  0.02992587  0.12594934    -0.06300
C336        C  0.00298855  0.03151384  0.12270615    -0.15900
C337        C  0.01106537  0.06981212  0.14712710    -0.01500
C338        C  0.00094638  0.10960579  0.16051637    -0.09000
C339        C  0.95433115  0.06388724  0.14335301     0.65300
H340        H  0.97719346  0.99926967  0.11385445     0.10700
C341        C  0.02841928  0.06739419  0.16961143     0.63700
H342        H  0.00720836  0.13990232  0.17641897     0.08100
F343        F  0.93505572  0.26778006  0.13944279    -0.19400
F344        F  0.96110322  0.26492580  0.10621872    -0.15600
F345        F  0.95799295  0.30965222  0.16535106    -0.19100
F346        F  0.98199290  0.12811417  0.28907562    -0.22500
F347        F  0.98368075  0.07237307  0.23755525    -0.24000
F348        F  0.95814732  0.08511245  0.27108940    -0.18000
F349        F  0.04010677  0.10032100  0.15242941    -0.20400
F350        F  0.03528419  0.02209007  0.16907267    -0.21600
F351        F  0.02605491  0.07923574  0.21211294    -0.18800
F352        F  0.94842818  0.02167494  0.12433775    -0.18900
F353        F  0.94763695  0.10229513  0.12123046    -0.22700
F354        F  0.94784798  0.06511374  0.18446464    -0.24300
C355        C  0.92509108  0.53672540  0.52254554    -0.11100
C356        C  0.91088815  0.52811738  0.55016795     0.11500
C357        C  0.89733712  0.49614298  0.53774999    -0.02900
C358        C  0.89848553  0.47374334  0.49771679    -0.05700
C359        C  0.91256953  0.48248863  0.46970727    -0.16400
C360        C  0.92625905  0.51411013  0.48233063     0.02500
C361        C  0.90985766  0.55497293  0.59107181     0.12400
C362        C  0.88154227  0.48642448  0.56635172     0.63100
H363        H  0.88813378  0.44957726  0.48754733     0.12500
C364        C  0.94178691  0.52485919  0.45336955     0.55200
H365        H  0.93519561  0.56168139  0.53272336     0.08300
C366        C  0.91761629  0.53778993  0.62846051    -0.05600
C367        C  0.91357673  0.56091088  0.66735959    -0.06300
C368        C  0.90248740  0.60103761  0.66925750    -0.15900
C369        C  0.89633532  0.62124082  0.63113720    -0.01500
C370        C  0.90002223  0.59739578  0.59255700    -0.09000
C371        C  0.93017882  0.49565635  0.62690035     0.65300
H372        H  0.91879914  0.54737003  0.69667846     0.10700
C373        C  0.88619183  0.66816096  0.63098879     0.63700
H374        H  0.89473824  0.61076526  0.56323131     0.08100
F375        F  0.95190866  0.48401360  0.44887815    -0.19400
F376        F  0.95224715  0.56147526  0.46952013    -0.15600
F377        F  0.93611044  0.53904146  0.41395578    -0.19100
F378        F  0.87244202  0.52869551  0.57344523    -0.22500
F379        F  0.88688268  0.46846369  0.60477760    -0.24000
F380        F  0.87016325  0.45310058  0.54853012    -0.18000
F381        F  0.88422174  0.68545999  0.59028025    -0.20400
F382        F  0.89498498  0.70306549  0.65421717    -0.21600
F383        F  0.86972273  0.66109186  0.64844234    -0.18800
F384        F  0.93628784  0.48458403  0.66674507    -0.18900
F385        F  0.94440375  0.50729078  0.60133015    -0.22700
F386        F  0.92201412  0.45504218  0.61050904    -0.24300
C387        C  0.27512873  0.79433362  0.25090292    -0.11100
C388        C  0.26820040  0.76330824  0.28188117     0.11500
C389        C  0.27885331  0.74738412  0.31523302    -0.02900
C390        C  0.29598555  0.76572306  0.31790113    -0.05700
C391        C  0.30287847  0.79722346  0.28721524    -0.16400
C392        C  0.29246460  0.81144981  0.25282324     0.02500
C393        C  0.24976811  0.74740940  0.27819072     0.12400
C394        C  0.27235413  0.70989571  0.34679833     0.63100
H395        H  0.30433251  0.75471926  0.34349909     0.12500
C396        C  0.29948541  0.84556054  0.21912936     0.55200
H397        H  0.26675761  0.80518159  0.22530357     0.08300
C398        C  0.23585210  0.77447323  0.29618841    -0.05600
C399        C  0.21876702  0.75584361  0.29328632    -0.06300
C400        C  0.21535213  0.71194735  0.27247904    -0.15900
C401        C  0.22912383  0.68611549  0.25277720    -0.01500
C402        C  0.24625314  0.70440086  0.25599757    -0.09000
C403        C  0.23904288  0.82271668  0.31820176     0.65300
H404        H  0.20790768  0.77506074  0.30774832     0.10700
C405        C  0.22559336  0.63975510  0.22836077     0.63700
H406        H  0.25710276  0.68501234  0.24168432     0.08100
F407        F  0.28699594  0.85601383  0.18927988    -0.19400
F408        F  0.31355579  0.82489366  0.19811259    -0.15600
F409        F  0.30478249  0.88843001  0.23794541    -0.19100
F410        F  0.26888717  0.66704099  0.32562807    -0.22500
F411        F  0.25724126  0.72534145  0.36700795    -0.24000
F412        F  0.28461207  0.70084073  0.37756723    -0.18000
F413        F  0.24074301  0.62075080  0.21070230    -0.20400
F414        F  0.21412068  0.64878532  0.19589845    -0.21600
F415        F  0.21827216  0.60567918  0.25519076    -0.18800
F416        F  0.22362707  0.84308617  0.33298565    -0.18900
F417        F  0.24681045  0.85459808  0.29006206    -0.22700
F418        F  0.24990062  0.81690459  0.35240303    -0.24300
C419        C  0.44764653  0.63659726  0.20489422    -0.11100
C420        C  0.46271874  0.65658395  0.18613429     0.11500
C421        C  0.46590972  0.70691124  0.18923293    -0.02900
C422        C  0.45394128  0.73563740  0.21233583    -0.05700
C423        C  0.43876111  0.71564669  0.23075884    -0.16400
C424        C  0.43557242  0.66526196  0.22748105     0.02500
C425        C  0.47444978  0.62373820  0.16178735     0.12400
C426        C  0.48152556  0.73020664  0.16699204     0.63100
H427        H  0.45604479  0.77424803  0.21509329     0.12500
C428        C  0.41977344  0.64156430  0.24864432     0.55200
H429        H  0.44539454  0.59811539  0.20139055     0.08300
C430        C  0.48690245  0.59492246  0.18156062    -0.05600
C431        C  0.49693837  0.56304954  0.15651327    -0.06300
C432        C  0.49527832  0.55823475  0.11164993    -0.15900
C433        C  0.48164681  0.58705183  0.09246195    -0.01500
C434        C  0.47183176  0.61888262  0.11841057    -0.09000
C435        C  0.48930326  0.59719645  0.22939522     0.65300
H436        H  0.50569054  0.54036103  0.17343873     0.10700
C437        C  0.47607182  0.58486389  0.04582370     0.63700
H438        H  0.46140753  0.64005136  0.10523148     0.08100
F439        F  0.42033992  0.59171276  0.24549534    -0.19400
F440        F  0.40461091  0.65652082  0.22965557    -0.15600
F441        F  0.41920742  0.65389334  0.29124688    -0.19100
F442        F  0.47981104  0.72523365  0.12357966    -0.22500
F443        F  0.49682792  0.70837072  0.17909021    -0.24000
F444        F  0.48288247  0.77896388  0.17653514    -0.18000
F445        F  0.46607509  0.54401412  0.03877419    -0.20400
F446        F  0.49003104  0.58579961  0.01790385    -0.21600
F447        F  0.46582100  0.62383900  0.03521882    -0.18800
F448        F  0.50284053  0.56826640  0.24249769    -0.18900
F449        F  0.47415673  0.58184172  0.24972376    -0.22700
F450        F  0.49300714  0.64402834  0.24203609    -0.24300
C451        C  0.23527643  0.34631813  0.91389923    -0.11100
C452        C  0.23978493  0.29914628  0.90194903     0.11500
C453        C  0.22652381  0.26399181  0.89570472    -0.02900
C454        C  0.20897279  0.27861084  0.89777651    -0.05700
C455        C  0.20445883  0.32667123  0.90680982    -0.16400
C456        C  0.21771408  0.36070906  0.91692601     0.02500
C457        C  0.25854034  0.28798732  0.89530336     0.12400
C458        C  0.23093543  0.21145070  0.88690636     0.63100
H459        H  0.19861572  0.25280464  0.89132518     0.12500
C460        C  0.21335494  0.41145483  0.93198128     0.55200
H461        H  0.24569499  0.37208822  0.91992835     0.08300
C462        C  0.26723974  0.29783640  0.85632282    -0.05600
C463        C  0.28501251  0.28603031  0.85196180    -0.06300
C464        C  0.29422616  0.26585952  0.88547925    -0.15900
C465        C  0.28553879  0.25590261  0.92436996    -0.01500
C466        C  0.26774006  0.26758318  0.92876026    -0.09000
C467        C  0.25788270  0.32168147  0.81991899     0.65300
H468        H  0.29200338  0.29341862  0.82258322     0.10700
C469        C  0.29492349  0.23164332  0.96038956     0.63700
H470        H  0.26079060  0.26063978  0.95827105     0.08100
F471        F  0.22797674  0.43565401  0.94685869    -0.19400
F472        F  0.20115071  0.40938386  0.96472875    -0.15600
F473        F  0.20666846  0.43779020  0.89903714    -0.19100
F474        F  0.23972678  0.19285299  0.92104003    -0.22500
F475        F  0.24140320  0.20761300  0.85096597    -0.24000
F476        F  0.21607969  0.18354242  0.88068400    -0.18000
F477        F  0.28395883  0.22400966  0.99503840    -0.20400
F478        F  0.30877377  0.26013863  0.97350230    -0.21600
F479        F  0.30116423  0.18736528  0.94668683    -0.18800
F480        F  0.26845438  0.32511925  0.78404579    -0.18900
F481        F  0.25296458  0.36780699  0.83183717    -0.22700
F482        F  0.24314969  0.29528238  0.80926946    -0.24300
C483        C  0.44511131  0.43662794  0.96549728    -0.11100
C484        C  0.45789193  0.40896633  0.98511368     0.11500
C485        C  0.45762506  0.35811187  0.98047237    -0.02900
C486        C  0.44469380  0.33664000  0.95496655    -0.05700
C487        C  0.43193593  0.36435155  0.93504278    -0.16400
C488        C  0.43222698  0.41533800  0.93986139     0.02500
C489        C  0.47145133  0.43483265  0.01002161     0.12400
C490        C  0.47071722  0.32676579  0.00300652     0.63100
H491        H  0.44420497  0.29776041  0.95107661     0.12500
C492        C  0.41956449  0.44751709  0.91675385     0.55200
H493        H  0.44546991  0.47542086  0.97017345     0.08300
C494        C  0.48541069  0.45964865  0.99026690    -0.05600
C495        C  0.49675794  0.48737306  0.01545520    -0.06300
C496        C  0.49561092  0.48947943  0.06053371    -0.15900
C497        C  0.48130726  0.46249266  0.08015286    -0.01500
C498        C  0.46945313  0.43723163  0.05398724    -0.09000
C499        C  0.48813506  0.45768793  0.94236063     0.65300
H500        H  0.50627945  0.50876018  0.99879171     0.10700
C501        C  0.47664323  0.46128997  0.12743571     0.63700
H502        H  0.45810967  0.41945055  0.06788703     0.08100
F503        F  0.42418711  0.49582214  0.92021223    -0.19400
F504        F  0.40293009  0.44213987  0.93367130    -0.15600
F505        F  0.41944852  0.43549215  0.87408134    -0.19100
F506        F  0.46796889  0.33016778  0.04635579    -0.22500
F507        F  0.48758300  0.34176221  0.99341805    -0.24000
F508        F  0.46913839  0.27867045  0.99125258    -0.18000
F509        F  0.46506624  0.49797299  0.13703887    -0.20400
F510        F  0.49091359  0.46526367  0.15312441    -0.21600
F511        F  0.46861861  0.41786682  0.13786901    -0.18800
F512        F  0.50345245  0.48069483  0.92972575    -0.18900
F513        F  0.47441032  0.47990838  0.92249773    -0.22700
F514        F  0.48904371  0.41017175  0.92877204    -0.24300
C515        C  0.38936406  0.95666201  0.58282897    -0.11100
C516        C  0.39824515  0.00091909  0.57970670     0.11500
C517        C  0.40804003  0.01195035  0.54259142    -0.02900
C518        C  0.40701688  0.98010277  0.50766474    -0.05700
C519        C  0.39689816  0.93769200  0.50965498    -0.16400
C520        C  0.38862715  0.92440086  0.54833153     0.02500
C521        C  0.39675241  0.03490792  0.61599593     0.12400
C522        C  0.41963383  0.05664326  0.54027791     0.63100
H523        H  0.41365640  0.98878277  0.47810316     0.12500
C524        C  0.37914437  0.87637690  0.55330074     0.55200
H525        H  0.38249630  0.94835834  0.61219182     0.08300
C526        C  0.38297247  0.06858791  0.61913923    -0.05600
C527        C  0.38198385  0.09859532  0.65522591    -0.06300
C528        C  0.39360305  0.09386829  0.68903542    -0.15900
C529        C  0.40665672  0.05781801  0.68697725    -0.01500
C530        C  0.40828000  0.02971629  0.64974587    -0.09000
C531        C  0.36887330  0.07106318  0.58565413     0.65300
H532        H  0.37173464  0.12523059  0.65792667     0.10700
C533        C  0.41804519  0.04672173  0.72465023     0.63700
H534        H  0.41826841  0.00231999  0.64708519     0.08100
F535        F  0.36367187  0.87682744  0.53125912    -0.19400
F536        F  0.37522671  0.86679508  0.59543246    -0.15600
F537        F  0.38954742  0.83938711  0.53785847    -0.19100
F538        F  0.43228419  0.05422494  0.57105477    -0.22500
F539        F  0.40989025  0.09783342  0.54702499    -0.24000
F540        F  0.42796374  0.06058584  0.50117386    -0.18000
F541        F  0.42743327  0.00466785  0.71834563    -0.20400
F542        F  0.40772452  0.04077069  0.76064889    -0.21600
F543        F  0.42981932  0.08398292  0.73118456    -0.18800
F544        F  0.35665865  0.10629725  0.59514504    -0.18900
F545        F  0.36016637  0.02721479  0.58319245    -0.22700
F546        F  0.37618761  0.08137376  0.54644388    -0.24300
C547        C  0.73332613  0.76967280  0.82582946    -0.11100
C548        C  0.74351847  0.80066021  0.85087229     0.11500
C549        C  0.73567858  0.84038213  0.87203801    -0.02900
C550        C  0.71749066  0.84609076  0.86921216    -0.05700
C551        C  0.70717293  0.81420998  0.84519405    -0.16400
C552        C  0.71521171  0.77608277  0.82205068     0.02500
C553        C  0.76257578  0.79192047  0.85190986     0.12400
C554        C  0.74648030  0.87680163  0.89696158     0.63100
H555        H  0.71113543  0.87578667  0.88563961     0.12500
C556        C  0.70500835  0.74397528  0.79173983     0.55200
H557        H  0.73980079  0.74059587  0.80880946     0.08300
C558        C  0.76987529  0.75628716  0.87814542    -0.05600
C559        C  0.78795934  0.74784215  0.87516480    -0.06300
C560        C  0.79871286  0.77424270  0.84732343    -0.15900
C561        C  0.79147653  0.81055223  0.82181083    -0.01500
C562        C  0.77336010  0.81819533  0.82402571    -0.09000
C563        C  0.75857562  0.72688220  0.90853191     0.65300
H564        H  0.79385487  0.72016783  0.89423411     0.10700
C565        C  0.80285577  0.84085185  0.79237168     0.63700
H566        H  0.76740096  0.84477866  0.80391954     0.08100
F567        F  0.69347177  0.71490428  0.81410583    -0.19400
F568        F  0.71590985  0.71421266  0.76801464    -0.15600
F569        F  0.69583384  0.77219177  0.76386192    -0.19100
F570        F  0.75828656  0.89967419  0.87015350    -0.22500
F571        F  0.75551690  0.85374002  0.92845628    -0.24000
F572        F  0.73614492  0.91189601  0.91592975    -0.18000
F573        F  0.81192275  0.81124675  0.76437886    -0.20400
F574        F  0.81462534  0.86757616  0.81598719    -0.21600
F575        F  0.79307236  0.87261198  0.76893502    -0.18800
F576        F  0.76851852  0.69714425  0.93354717    -0.18900
F577        F  0.74708023  0.69821433  0.88589203    -0.22700
F578        F  0.74915888  0.75724690  0.93512943    -0.24300
C579        C  0.54570235  0.66824995  0.93734525    -0.11100
C580        C  0.55202787  0.65411122  0.97678549     0.11500
C581        C  0.56863352  0.67048258  0.99015094    -0.02900
C582        C  0.57801251  0.70286603  0.96417036    -0.05700
C583        C  0.57167196  0.71785901  0.92474008    -0.16400
C584        C  0.55531829  0.69953607  0.91062155     0.02500
C585        C  0.54096675  0.62190008  0.00353106     0.12400
C586        C  0.57663389  0.65265102  0.03101861     0.63100
H587        H  0.59062321  0.71628426  0.97431434     0.12500
C588        C  0.54807922  0.71143603  0.86738804     0.55200
H589        H  0.53304518  0.65454759  0.92774607     0.08300
C590        C  0.52865785  0.64037388  0.03258483    -0.05600
C591        C  0.51967512  0.60816283  0.05929338    -0.06300
C592        C  0.52080058  0.55675051  0.05564168    -0.15900
C593        C  0.53481233  0.53920315  0.02800562    -0.01500
C594        C  0.54378679  0.57233102  0.00142240    -0.09000
C595        C  0.52478140  0.69421147  0.03484831     0.65300
H596        H  0.51174261  0.62469936  0.08357557     0.10700
C597        C  0.54216165  0.48787435  0.02770234     0.63700
H598        H  0.55391839  0.56026954  0.97958098     0.08100
F599        F  0.54204417  0.75828347  0.86759352    -0.19400
F600        F  0.53425166  0.68128131  0.85684900    -0.15600
F601        F  0.56087588  0.70604924  0.83631400    -0.19100
F602        F  0.57921445  0.60338737  0.02818030    -0.22500
F603        F  0.56570486  0.66229325  0.06525726    -0.24000
F604        F  0.59263086  0.67447910  0.03877341    -0.18000
F605        F  0.55426494  0.48068536  0.99521388    -0.20400
F606        F  0.52941875  0.45366161  0.02182554    -0.21600
F607        F  0.55076077  0.47930097  0.06500813    -0.18800
F608        F  0.51225070  0.70511944  0.06548715    -0.18900
F609        F  0.51860685  0.70925016  0.99617801    -0.22700
F610        F  0.53975967  0.72012822  0.04425157    -0.24300
C611        C  0.75187135  0.36387594  0.31665697    -0.11100
C612        C  0.75950897  0.32246863  0.29873311     0.11500
C613        C  0.74905203  0.28089771  0.29115600    -0.02900
C614        C  0.73118161  0.28215088  0.30250173    -0.05700
C615        C  0.72352703  0.32371611  0.32018322    -0.16400
C616        C  0.73394246  0.36549403  0.32715242     0.02500
C617        C  0.77867169  0.32346413  0.28999119     0.12400
C618        C  0.75669448  0.23570557  0.27080687     0.63100
H619        H  0.72298816  0.25057063  0.29766553     0.12500
C620        C  0.72629308  0.41117008  0.34654099     0.55200
H621        H  0.76017162  0.39498688  0.32257655     0.08300
C622        C  0.78616403  0.34954502  0.25566454    -0.05600
C623        C  0.80451469  0.35269431  0.25202578    -0.06300
C624        C  0.81537463  0.33004794  0.28111030    -0.15900
C625        C  0.80790794  0.30203057  0.31410665    -0.01500
C626        C  0.78959677  0.29990531  0.31842925    -0.09000
C627        C  0.77493350  0.37598014  0.22421338     0.65300
H628        H  0.81052443  0.37440920  0.22731725     0.10700
C629        C  0.81929991  0.27500606  0.34479649     0.63700
H630        H  0.78362349  0.28060667  0.34467932     0.08100
F631        F  0.71475354  0.43144180  0.31860268    -0.19400
F632        F  0.73909935  0.44525562  0.35536263    -0.15600
F633        F  0.71758602  0.40051705  0.38409804    -0.19100
F634        F  0.76893848  0.21581757  0.29715049    -0.22500
F635        F  0.76462624  0.24714790  0.23247377    -0.24000
F636        F  0.74397303  0.20099426  0.26316610    -0.18000
F637        F  0.82953869  0.30728054  0.36734342    -0.20400
F638        F  0.82999379  0.24348901  0.32245283    -0.21600
F639        F  0.80943457  0.24837227  0.37351432    -0.18800
F640        F  0.78446101  0.38885820  0.18833888    -0.18900
F641        F  0.76842367  0.41750880  0.24296838    -0.22700
F642        F  0.76114419  0.34703407  0.21135705    -0.24300
C643        C  0.57659518  0.43199339  0.18535694    -0.11100
C644        C  0.56065722  0.44638116  0.20363779     0.11500
C645        C  0.55743074  0.43885511  0.24733759    -0.02900
C646        C  0.57093846  0.42026300  0.27211007    -0.05700
C647        C  0.58714377  0.40689702  0.25415102    -0.16400
C648        C  0.58983964  0.41125819  0.20960898     0.02500
C649        C  0.54715607  0.46566491  0.17510947     0.12400
C650        C  0.53960598  0.44870951  0.26723457     0.63100
H651        H  0.56883482  0.41529964  0.30582898     0.12500
C652        C  0.60608004  0.39232969  0.18686472     0.55200
H653        H  0.57847668  0.43666386  0.15150504     0.08300
C654        C  0.54661368  0.51447188  0.16387286    -0.05600
C655        C  0.53364563  0.52930822  0.13594086    -0.06300
C656        C  0.52171619  0.49711586  0.11517193    -0.15900
C657        C  0.52417596  0.44576764  0.12351666    -0.01500
C658        C  0.53584210  0.43286015  0.15585080    -0.09000
C659        C  0.55988250  0.55074386  0.18082933     0.65300
H660        H  0.53263726  0.56757084  0.13035229     0.10700
C661        C  0.51650534  0.40031082  0.10210953     0.63700
H662        H  0.53707361  0.39525211  0.16466796     0.08100
F663        F  0.61986906  0.42406927  0.19266593    -0.19400
F664        F  0.60348661  0.38748972  0.14364529    -0.15600
F665        F  0.61040683  0.34728263  0.20196850    -0.19100
F666        F  0.52718578  0.41942471  0.24831706    -0.22500
F667        F  0.53511035  0.49640535  0.26163192    -0.24000
F668        F  0.53930226  0.43944771  0.31032333    -0.18000
F669        F  0.52985697  0.36777521  0.09410669    -0.20400
F670        F  0.50870977  0.40599581  0.06384413    -0.21600
F671        F  0.50466021  0.37856700  0.12958421    -0.18800
F672        F  0.55689493  0.59697684  0.16637942    -0.18900
F673        F  0.57650703  0.53759154  0.16772612    -0.22700
F674        F  0.55920412  0.55200131  0.22463259    -0.24300
C675        C  0.60387667  0.09495829  0.55158840    -0.11100
C676        C  0.61161427  0.10640481  0.59047179     0.11500
C677        C  0.62333575  0.14612554  0.59331194    -0.02900
C678        C  0.62619208  0.17476808  0.55723994    -0.05700
C679        C  0.61856849  0.16324428  0.51817679    -0.16400
C680        C  0.60754563  0.12198821  0.51484233     0.02500
C681        C  0.60968033  0.07140220  0.62552625     0.12400
C682        C  0.63356207  0.15650968  0.63347542     0.63100
H683        H  0.63496347  0.20560987  0.55881068     0.12500
C684        C  0.60083870  0.10428871  0.47230490     0.55200
H685        H  0.59558455  0.06312718  0.54989730     0.08300
C686        C  0.59695383  0.07594425  0.65828495    -0.05600
C687        C  0.59786393  0.04485209  0.69336614    -0.06300
C688        C  0.61060924  0.00876730  0.69523476    -0.15900
C689        C  0.62187153  0.00064520  0.65977649    -0.01500
C690        C  0.62135632  0.03280725  0.62573502    -0.09000
C691        C  0.58227957  0.11226649  0.65539612     0.65300
H692        H  0.58884737  0.04899834  0.71991907     0.10700
C693        C  0.63420715  0.95794683  0.65714366     0.63700
H694        H  0.63049032  0.02896802  0.59935437     0.08100
F695        F  0.58898914  0.13665724  0.45655926    -0.19400
F696        F  0.59255847  0.05979757  0.47552383    -0.15600
F697        F  0.61467868  0.09942679  0.44390331    -0.19100
F698        F  0.64391269  0.11741301  0.64274815    -0.22500
F699        F  0.62228371  0.16502521  0.66723467    -0.24000
F700        F  0.64438414  0.19651859  0.62913184    -0.18000
F701        F  0.64043541  0.95060764  0.61615284    -0.20400
F702        F  0.62556372  0.91623396  0.66957564    -0.21600
F703        F  0.64841165  0.96589318  0.68288802    -0.18800
F704        F  0.57128400  0.11065198  0.69062517    -0.18900
F705        F  0.57246168  0.10204934  0.61989204    -0.22700
F706        F  0.58893523  0.15860118  0.65213727    -0.24300
loop_ 
_geom_bond_atom_site_label_1 
_geom_bond_atom_site_label_2 
_geom_bond_distance 
_geom_bond_site_symmetry_2 
_ccdc_geom_bond_type 
N1            N2   1.323       .  A
N1            C5   1.347       .  A
N1           Cu9   2.076       .  S
N2            C3   1.345       .  A
N2           Cu8   2.081       .  S
C3            C4   1.384       .  A
C3            H6   1.082       .  S
C4            C5   1.384       .  A
C4          C679   1.482       .  S
C5            H7   1.081       .  S
Cu8          N11   2.081       .  S
Cu9          N19   2.076       .  S
Cu10         N12   2.074       .  S
Cu10         N18   2.074       .  S
N11          N12   1.322       .  A
N11          C15   1.346       .  A
N12          C13   1.346       .  A
C13          C14   1.384       .  A
C13          H16   1.081       .  S
C14          C15   1.384       .  A
C14         C615   1.481       .  S
C15          H17   1.082       .  S
N18          N19   1.321       .  A
N18          C22   1.345       .  A
N19          C20   1.345       .  A
C20          C21   1.386       .  A
C20          H23   1.082       .  S
C21          C22   1.386       .  A
C21         C647   1.487       .  S
C22          H24   1.076       .  S
N25          N26   1.323       .  A
N25          C29   1.350       .  A
N25         Cu33   2.090       .  S
N26          C27   1.340       .  A
N26         Cu32   2.060       .  S
C27          C28   1.378       .  A
C27          H30   1.081       .  S
C28          C29   1.387       .  A
C28         C688   1.478   1_565  S
C29          H31   1.082       .  S
Cu32         N35   2.062       .  S
Cu33         N43   2.090       .  S
Cu34         N36   2.068       .  S
Cu34         N42   2.069       .  S
N35          N36   1.320       .  A
N35          C39   1.344       .  A
N36          C37   1.344       .  A
C37          C38   1.384       .  A
C37          H40   1.080       .  S
C38          C39   1.383       .  A
C38         C551   1.478       .  S
C39          H41   1.081       .  S
N42          N43   1.322       .  A
N42          C46   1.342       .  A
N43          C44   1.349       .  A
C44          C45   1.391       .  A
C44          H47   1.078       .  S
C45          C46   1.384       .  A
C45         C583   1.490       .  S
C46          H48   1.082       .  S
N49          N50   1.322       .  A
N49          C53   1.348       .  A
N49         Cu57   2.085       .  S
N50          C51   1.342       .  A
N50         Cu56   2.066       .  S
C51          C52   1.382       .  A
C51          H54   1.082       .  S
C52          C53   1.387       .  A
C52         C528   1.482       .  S
C53          H55   1.080       .  S
Cu56         N59   2.066       .  S
Cu57         N67   2.085       .  S
Cu58         N60   2.074       .  S
Cu58         N66   2.075       .  S
N59          N60   1.321       .  A
N59          C63   1.345       .  A
N60          C61   1.345       .  A
C61          C62   1.383       .  A
C61          H64   1.081       .  S
C62          C63   1.381       .  A
C62         C464   1.474       .  S
C63          H65   1.081       .  S
N66          N67   1.323       .  A
N66          C70   1.344       .  A
N67          C68   1.347       .  A
C68          C69   1.386       .  A
C68          H71   1.082       .  S
C69          C70   1.383       .  A
C69         C487   1.483       .  S
C70          H72   1.081       .  S
N73          N74   1.323       .  A
N73          C77   1.349       .  A
N73         Cu81   2.086       .  S
N74          C75   1.340       .  A
N74         Cu80   2.060       .  S
C75          C76   1.377       .  A
C75          H78   1.081       .  S
C76          C77   1.386       .  A
C76         C519   1.474       .  S
C77          H79   1.082       .  S
Cu80         N83   2.059       .  S
Cu81         N91   2.086       .  S
Cu82         N84   2.072       .  S
Cu82         N90   2.072       .  S
N83          N84   1.320       .  A
N83          C87   1.343       .  A
N84          C85   1.345       .  A
C85          C86   1.385       .  A
C85          H88   1.081       .  S
C86          C87   1.382       .  A
C86         C391   1.475       .  S
C87          H89   1.082       .  S
N90          N91   1.324       .  A
N90          C94   1.343       .  A
N91          C92   1.348       .  A
C92          C93   1.384       .  A
C92          H95   1.082       .  S
C93          C94   1.380       .  A
C93         C423   1.478       .  S
C94          H96   1.081       .  S
C97         C432   1.600       .  S
C97         C496   1.569       .  S
C97         C592   1.610       .  S
C97         C656   1.593       .  S
N98          N99   1.321       .  A
N98         C102   1.350       .  A
N98        Cu106   2.086       .  S
N99         C100   1.341       .  A
N99        Cu105   2.067       .  S
C100        C101   1.383       .  A
C100        H103   1.082       .  S
C101        C102   1.390       .  A
C101        C359   1.485       .  S
C102        H104   1.080       .  S
Cu105       N108   2.067       .  S
Cu106       N116   2.087       .  S
Cu107       N109   2.082       .  S
Cu107       N115   2.083       .  S
N108        N109   1.321       .  A
N108        C112   1.343       .  A
N109        C110   1.349       .  A
C110        C111   1.385       .  A
C110        H113   1.082       .  S
C111        C112   1.380       .  A
C111        C624   1.477       .  S
C112        H114   1.082       .  S
N115        N116   1.325       .  A
N115        C119   1.345       .  A
N116        C117   1.347       .  A
C117        C118   1.383       .  A
C117        H120   1.082       .  S
C118        C119   1.382       .  A
C118        C327   1.478       .  S
C119        H121   1.082       .  S
N122        N123   1.323       .  A
N122        C126   1.348       .  A
N122       Cu130   2.079       .  S
N123        C124   1.344       .  A
N123       Cu129   2.078       .  S
C124        C125   1.383       .  A
C124        H127   1.082       .  S
C125        C126   1.383       .  A
C125        C368   1.480       .  S
C126        H128   1.082       .  S
Cu129       N132   2.079       .  S
Cu130       N140   2.080       .  S
Cu131       N133   2.066       .  S
Cu131       N139   2.066       .  S
N132        N133   1.322       .  A
N132        C136   1.346       .  A
N133        C134   1.344       .  A
C134        C135   1.379       .  A
C134        H137   1.082       .  S
C135        C136   1.383       .  A
C135        C560   1.472       .  S
C136        H138   1.082       .  S
N139        N140   1.321       .  A
N139        C143   1.344       .  A
N140        C141   1.345       .  A
C141        C142   1.388       .  A
C141        H144   1.080       .  S
C142        C143   1.385       .  A
C142        C304   1.486       .  S
C143        H145   1.082       .  S
N146        N147   1.323       .  A
N146        C150   1.348       .  A
N146       Cu154   2.080       .  S
N147        C148   1.342       .  A
N147       Cu153   2.064       .  S
C148        C149   1.378       .  A
C148        H151   1.083       .  S
C149        C150   1.384       .  A
C149        C263   1.472       .  S
C150        H152   1.082       .  S
Cu153       N156   2.063       .  S
Cu154       N164   2.080       .  S
Cu155       N157   2.072       .  S
Cu155       N163   2.073       .  S
N156        N157   1.321       .  A
N156        C160   1.343       .  A
N157        C158   1.346       .  A
C158        C159   1.383       .  A
C158        H161   1.082       .  S
C159        C160   1.380       .  A
C159        C400   1.471       .  S
C160        H162   1.082       .  S
N163        N164   1.323       .  A
N163        C167   1.343       .  A
N164        C165   1.347       .  A
C165        C166   1.384       .  A
C165        H168   1.081       .  S
C166        C167   1.381       .  A
C166        C240   1.476       .  S
C167        H169   1.081       .  S
N170        N171   1.322       .  A
N170        C174   1.347       .  A
N170       Cu178   2.079       .  S
N171        C172   1.341       .  A
N171       Cu177   2.066       .  S
C172        C173   1.383       .  A
C172        H175   1.082       .  S
C173        C174   1.387       .  A
C173        C272   1.482       .  S
C174        H176   1.080       .  S
Cu177       N180   2.066       .  S
Cu178       N188   2.079       .  S
Cu179       N181   2.072       .  S
Cu179       N187   2.073       .  S
N180        N181   1.320       .  A
N180        C184   1.343       .  A
N181        C182   1.346       .  A
C182        C183   1.386       .  A
C182        H185   1.082       .  S
C183        C184   1.384       .  A
C183        C455   1.479       .  S
C184        H186   1.081       .  S
N187        N188   1.324       .  A
N187        C191   1.342       .  A
N188        C189   1.348       .  A
C189        C190   1.383       .  A
C189        H192   1.083       .  S
C190        C191   1.380       .  A
C190        C199   1.475       .  S
C191        H193   1.083       .  S
C194        C208   1.599   1_565  S
C194        C231   1.572       .  S
C194        C295   1.597   1_455  S
C194        C336   1.603   1_565  S
C195        C196   1.402       .  A
C195        C200   1.402       .  A
C195        H205   1.083       .  S
C196        C197   1.415       .  A
C196        C201   1.484   1_556  S
C197        C198   1.410       .  A
C197        C202   1.518   1_556  S
C198        C199   1.404       .  A
C198        H203   1.083       .  S
C199        C200   1.414       .  A
C200        C204   1.519       .  S
C201        C206   1.412   1_554  A
C201        C210   1.400       .  A
C202        F218   1.382       .  S
C202        F219   1.383   1_554  S
C202        F220   1.384   1_554  S
C204        F215   1.385       .  S
C204        F216   1.381       .  S
C204        F217   1.384       .  S
C206        C207   1.406   1_556  A
C206        C211   1.521       .  S
C207        C208   1.424       .  A
C207        H212   1.078   1_545  S
C208        C209   1.431       .  A
C209        C210   1.408       .  A
C209        C213   1.533       .  S
C210        H214   1.085       .  S
C211        F224   1.385       .  S
C211        F225   1.381       .  S
C211        F226   1.383       .  S
C213        F221   1.384       .  S
C213        F222   1.367   1_545  S
C213        F223   1.386       .  S
C227        C228   1.395       .  A
C227        C232   1.410       .  A
C227        H237   1.083       .  S
C228        C229   1.407       .  A
C228        C233   1.482       .  S
C229        C230   1.405       .  A
C229        C234   1.520       .  S
C230        C231   1.426       .  A
C230        H235   1.080       .  S
C231        C232   1.442       .  A
C232        C236   1.524       .  S
C233        C238   1.416       .  A
C233        C242   1.403       .  A
C234        F250   1.382       .  S
C234        F251   1.382       .  S
C234        F252   1.385       .  S
C236        F247   1.378       .  S
C236        F248   1.386       .  S
C236        F249   1.379   1_455  S
C238        C239   1.404       .  A
C238        C243   1.519       .  S
C239        C240   1.402       .  A
C239        H244   1.083       .  S
C240        C241   1.415       .  A
C241        C242   1.407       .  A
C241        C245   1.517       .  S
C242        H246   1.083       .  S
C243        F256   1.385       .  S
C243        F257   1.382       .  S
C243        F258   1.381       .  S
C245        F253   1.382       .  S
C245        F254   1.383       .  S
C245        F255   1.385       .  S
C259        C260   1.401       .  A
C259        C264   1.404       .  A
C259        H269   1.083       .  S
C260        C261   1.416       .  A
C260        C265   1.480       .  S
C261        C262   1.407       .  A
C261        C266   1.518       .  S
C262        C263   1.402       .  A
C262        H267   1.083       .  S
C263        C264   1.415       .  A
C264        C268   1.518       .  S
C265        C270   1.414       .  A
C265        C274   1.401       .  A
C266        F282   1.382       .  S
C266        F283   1.382       .  S
C266        F284   1.385       .  S
C268        F279   1.382       .  S
C268        F280   1.385       .  S
C268        F281   1.383       .  S
C270        C271   1.404       .  A
C270        C275   1.521       .  S
C271        C272   1.405       .  A
C271        H276   1.083       .  S
C272        C273   1.419       .  A
C273        C274   1.408       .  A
C273        C277   1.518       .  S
C274        H278   1.083       .  S
C275        F288   1.385       .  S
C275        F289   1.382       .  S
C275        F290   1.382       .  S
C277        F285   1.385       .  S
C277        F286   1.383       .  S
C277        F287   1.380       .  S
C291        C292   1.391       .  A
C291        C296   1.407       .  A
C291        H301   1.085   1_554  S
C292        C293   1.405       .  A
C292        C297   1.481   1_554  S
C293        C294   1.404       .  A
C293        C298   1.524       .  S
C294        C295   1.428       .  A
C294        H299   1.073   1_655  S
C295        C296   1.456       .  A
C296        C300   1.534   1_565  S
C297        C302   1.413       .  A
C297        C306   1.399       .  A
C298        F314   1.383   1_554  S
C298        F315   1.381       .  S
C298        F316   1.385       .  S
C300        F311   1.384       .  S
C300        F312   1.384   1_554  S
C300        F313   1.375       .  S
C302        C303   1.407       .  A
C302        C307   1.520   1_556  S
C303        C304   1.408       .  A
C303        H308   1.083       .  S
C304        C305   1.421       .  A
C305        C306   1.405       .  A
C305        C309   1.519       .  S
C306        H310   1.084       .  S
C307        F320   1.384       .  S
C307        F321   1.383       .  S
C307        F322   1.381       .  S
C309        F317   1.385       .  S
C309        F318   1.384       .  S
C309        F319   1.381       .  S
C323        C324   1.403       .  A
C323        C328   1.408       .  A
C323        H333   1.083       .  S
C324        C325   1.421       .  A
C324        C329   1.483       .  S
C325        C326   1.405       .  A
C325        C330   1.520       .  S
C326        C327   1.400       .  A
C326        H331   1.085       .  S
C327        C328   1.415       .  A
C328        C332   1.517       .  S
C329        C334   1.404       .  A
C329        C338   1.393   1_655  A
C330        F346   1.383       .  S
C330        F347   1.381       .  S
C330        F348   1.383       .  S
C332        F343   1.382       .  S
C332        F344   1.385       .  S
C332        F345   1.383       .  S
C334        C335   1.404       .  A
C334        C339   1.522       .  S
C335        C336   1.431   1_655  A
C335        H340   1.075   1_545  S
C336        C337   1.445       .  A
C337        C338   1.410       .  A
C337        C341   1.516       .  S
C338        H342   1.085       .  S
C339        F352   1.385       .  S
C339        F353   1.383       .  S
C339        F354   1.382       .  S
C341        F349   1.381       .  S
C341        F350   1.364       .  S
C341        F351   1.386       .  S
C355        C356   1.403       .  A
C355        C360   1.411       .  A
C355        H365   1.083       .  S
C356        C357   1.415       .  A
C356        C361   1.485       .  S
C357        C358   1.404       .  A
C357        C362   1.521       .  S
C358        C359   1.404       .  A
C358        H363   1.083       .  S
C359        C360   1.419       .  A
C360        C364   1.517       .  S
C361        C366   1.415       .  A
C361        C370   1.401       .  A
C362        F378   1.382       .  S
C362        F379   1.382       .  S
C362        F380   1.385       .  S
C364        F375   1.381       .  S
C364        F376   1.385       .  S
C364        F377   1.383       .  S
C366        C367   1.410       .  A
C366        C371   1.518       .  S
C367        C368   1.404       .  A
C367        H372   1.083       .  S
C368        C369   1.418       .  A
C369        C370   1.405       .  A
C369        C373   1.519       .  S
C370        H374   1.084       .  S
C371        F384   1.384       .  S
C371        F385   1.383       .  S
C371        F386   1.382       .  S
C373        F381   1.384       .  S
C373        F382   1.384       .  S
C373        F383   1.381       .  S
C387        C388   1.402       .  A
C387        C392   1.407       .  A
C387        H397   1.083       .  S
C388        C389   1.415       .  A
C388        C393   1.480       .  S
C389        C390   1.405       .  A
C389        C394   1.520       .  S
C390        C391   1.403       .  A
C390        H395   1.083       .  S
C391        C392   1.415       .  A
C392        C396   1.517       .  S
C393        C398   1.416       .  A
C393        C402   1.402       .  A
C394        F410   1.382       .  S
C394        F411   1.382       .  S
C394        F412   1.384       .  S
C396        F407   1.384       .  S
C396        F408   1.382       .  S
C396        F409   1.383       .  S
C398        C399   1.405       .  A
C398        C403   1.520       .  S
C399        C400   1.401       .  A
C399        H404   1.083       .  S
C400        C401   1.412       .  A
C401        C402   1.406       .  A
C401        C405   1.516       .  S
C402        H406   1.083       .  S
C403        F416   1.385       .  S
C403        F417   1.382       .  S
C403        F418   1.382       .  S
C405        F413   1.385       .  S
C405        F414   1.383       .  S
C405        F415   1.383       .  S
C419        C420   1.401       .  A
C419        C424   1.405       .  A
C419        H429   1.083       .  S
C420        C421   1.416       .  A
C420        C425   1.485       .  S
C421        C422   1.409       .  A
C421        C426   1.519       .  S
C422        C423   1.403       .  A
C422        H427   1.083       .  S
C423        C424   1.418       .  A
C424        C428   1.519       .  S
C425        C430   1.404       .  A
C425        C434   1.390       .  A
C426        F442   1.382       .  S
C426        F443   1.382       .  S
C426        F444   1.384       .  S
C428        F439   1.385       .  S
C428        F440   1.381       .  S
C428        F441   1.383       .  S
C430        C431   1.405       .  A
C430        C435   1.522       .  S
C431        C432   1.427       .  A
C431        H436   1.073       .  S
C432        C433   1.459       .  A
C433        C434   1.411       .  A
C433        C437   1.537       .  S
C434        H438   1.083       .  S
C435        F448   1.384       .  S
C435        F449   1.382       .  S
C435        F450   1.382       .  S
C437        F445   1.379       .  S
C437        F446   1.375       .  S
C437        F447   1.385       .  S
C451        C452   1.401       .  A
C451        C456   1.406       .  A
C451        H461   1.083       .  S
C452        C453   1.415       .  A
C452        C457   1.482       .  S
C453        C454   1.406       .  A
C453        C458   1.519       .  S
C454        C455   1.404       .  A
C454        H459   1.083       .  S
C455        C456   1.417       .  A
C456        C460   1.518       .  S
C457        C462   1.417       .  A
C457        C466   1.402       .  A
C458        F474   1.382       .  S
C458        F475   1.382       .  S
C458        F476   1.385       .  S
C460        F471   1.385       .  S
C460        F472   1.383       .  S
C460        F473   1.381       .  S
C462        C463   1.406       .  A
C462        C467   1.520       .  S
C463        C464   1.401       .  A
C463        H468   1.083       .  S
C464        C465   1.415       .  A
C465        C466   1.407       .  A
C465        C469   1.517       .  S
C466        H470   1.083       .  S
C467        F480   1.385       .  S
C467        F481   1.382       .  S
C467        F482   1.382       .  S
C469        F477   1.385       .  S
C469        F478   1.382       .  S
C469        F479   1.383       .  S
C483        C484   1.401       .  A
C483        C488   1.406       .  A
C483        H493   1.083       .  S
C484        C485   1.415       .  A
C484        C489   1.486   1_556  S
C485        C486   1.408       .  A
C485        C490   1.519   1_556  S
C486        C487   1.405       .  A
C486        H491   1.083       .  S
C487        C488   1.419       .  A
C488        C492   1.519       .  S
C489        C494   1.406   1_554  A
C489        C498   1.393       .  A
C490        F506   1.382       .  S
C490        F507   1.382   1_554  S
C490        F508   1.384   1_554  S
C492        F503   1.385       .  S
C492        F504   1.380       .  S
C492        F505   1.383       .  S
C494        C495   1.404   1_556  A
C494        C499   1.522       .  S
C495        C496   1.423       .  A
C495        H500   1.070   1_554  S
C496        C497   1.454       .  A
C497        C498   1.412       .  A
C497        C501   1.528       .  S
C498        H502   1.083       .  S
C499        F512   1.385       .  S
C499        F513   1.382       .  S
C499        F514   1.383       .  S
C501        F509   1.382       .  S
C501        F510   1.372       .  S
C501        F511   1.386       .  S
C515        C516   1.400   1_565  A
C515        C520   1.403       .  A
C515        H525   1.083       .  S
C516        C517   1.415       .  A
C516        C521   1.479       .  S
C517        C518   1.408   1_545  A
C517        C522   1.519       .  S
C518        C519   1.403       .  A
C518        H523   1.083       .  S
C519        C520   1.416       .  A
C520        C524   1.518       .  S
C521        C526   1.415       .  A
C521        C530   1.401       .  A
C522        F538   1.382       .  S
C522        F539   1.381       .  S
C522        F540   1.385       .  S
C524        F535   1.381       .  S
C524        F536   1.385       .  S
C524        F537   1.384       .  S
C526        C527   1.405       .  A
C526        C531   1.522       .  S
C527        C528   1.405       .  A
C527        H532   1.083       .  S
C528        C529   1.418       .  A
C529        C530   1.407       .  A
C529        C533   1.518       .  S
C530        H534   1.083       .  S
C531        F544   1.385       .  S
C531        F545   1.383       .  S
C531        F546   1.381       .  S
C533        F541   1.385       .  S
C533        F542   1.384       .  S
C533        F543   1.380       .  S
C547        C548   1.401       .  A
C547        C552   1.405       .  A
C547        H557   1.083       .  S
C548        C549   1.415       .  A
C548        C553   1.481       .  S
C549        C550   1.406       .  A
C549        C554   1.519       .  S
C550        C551   1.404       .  A
C550        H555   1.083       .  S
C551        C552   1.418       .  A
C552        C556   1.519       .  S
C553        C558   1.416       .  A
C553        C562   1.401       .  A
C554        F570   1.382       .  S
C554        F571   1.382       .  S
C554        F572   1.385       .  S
C556        F567   1.380       .  S
C556        F568   1.385       .  S
C556        F569   1.383       .  S
C558        C559   1.407       .  A
C558        C563   1.519       .  S
C559        C560   1.401       .  A
C559        H564   1.083       .  S
C560        C561   1.414       .  A
C561        C562   1.404       .  A
C561        C565   1.517       .  S
C562        H566   1.083       .  S
C563        F576   1.385       .  S
C563        F577   1.382       .  S
C563        F578   1.382       .  S
C565        F573   1.383       .  S
C565        F574   1.382       .  S
C565        F575   1.385       .  S
C579        C580   1.401       .  A
C579        C584   1.409       .  A
C579        H589   1.083       .  S
C580        C581   1.414       .  A
C580        C585   1.484   1_556  S
C581        C582   1.406       .  A
C581        C586   1.522   1_556  S
C582        C583   1.408       .  A
C582        H587   1.083       .  S
C583        C584   1.422       .  A
C584        C588   1.518       .  S
C585        C590   1.401       .  A
C585        C594   1.392       .  A
C586        F602   1.382       .  S
C586        F603   1.382       .  S
C586        F604   1.384       .  S
C588        F599   1.381       .  S
C588        F600   1.385       .  S
C588        F601   1.383       .  S
C590        C591   1.401       .  A
C590        C595   1.524       .  S
C591        C592   1.431       .  A
C591        H596   1.072       .  S
C592        C593   1.456       .  A
C593        C594   1.415       .  A
C593        C597   1.533       .  S
C594        H598   1.083   1_554  S
C595        F608   1.385       .  S
C595        F609   1.382   1_554  S
C595        F610   1.382       .  S
C597        F605   1.385   1_554  S
C597        F606   1.367       .  S
C597        F607   1.379       .  S
C611        C612   1.402       .  A
C611        C616   1.407       .  A
C611        H621   1.083       .  S
C612        C613   1.417       .  A
C612        C617   1.488       .  S
C613        C614   1.409       .  A
C613        C618   1.519       .  S
C614        C615   1.404       .  A
C614        H619   1.083       .  S
C615        C616   1.417       .  A
C616        C620   1.518       .  S
C617        C622   1.418       .  A
C617        C626   1.403       .  A
C618        F634   1.382       .  S
C618        F635   1.383       .  S
C618        F636   1.384       .  S
C620        F631   1.382       .  S
C620        F632   1.384       .  S
C620        F633   1.383       .  S
C622        C623   1.409       .  A
C622        C627   1.518       .  S
C623        C624   1.401       .  A
C623        H628   1.083       .  S
C624        C625   1.414       .  A
C625        C626   1.406       .  A
C625        C629   1.517       .  S
C626        H630   1.083       .  S
C627        F640   1.385       .  S
C627        F641   1.382       .  S
C627        F642   1.383       .  S
C629        F637   1.382       .  S
C629        F638   1.383       .  S
C629        F639   1.384       .  S
C643        C644   1.401       .  A
C643        C648   1.407       .  A
C643        H653   1.084       .  S
C644        C645   1.413       .  A
C644        C649   1.485       .  S
C645        C646   1.408       .  A
C645        C650   1.519       .  S
C646        C647   1.407       .  A
C646        H651   1.083       .  S
C647        C648   1.422       .  A
C648        C652   1.521       .  S
C649        C654   1.402       .  A
C649        C658   1.391       .  A
C650        F666   1.383       .  S
C650        F667   1.381       .  S
C650        F668   1.384       .  S
C652        F663   1.381       .  S
C652        F664   1.385       .  S
C652        F665   1.384       .  S
C654        C655   1.402       .  A
C654        C659   1.521       .  S
C655        C656   1.432       .  A
C655        H660   1.079       .  S
C656        C657   1.463       .  A
C657        C658   1.414       .  A
C657        C661   1.539       .  S
C658        H662   1.086       .  S
C659        F672   1.385       .  S
C659        F673   1.382       .  S
C659        F674   1.381       .  S
C661        F669   1.387       .  S
C661        F670   1.364       .  S
C661        F671   1.383       .  S
C675        C676   1.401       .  A
C675        C680   1.408       .  A
C675        H685   1.083       .  S
C676        C677   1.417       .  A
C676        C681   1.481       .  S
C677        C678   1.406       .  A
C677        C682   1.522       .  S
C678        C679   1.403       .  A
C678        H683   1.083       .  S
C679        C680   1.419       .  A
C680        C684   1.518       .  S
C681        C686   1.415       .  A
C681        C690   1.399       .  A
C682        F698   1.382       .  S
C682        F699   1.381       .  S
C682        F700   1.384       .  S
C684        F695   1.380       .  S
C684        F696   1.385       .  S
C684        F697   1.384       .  S
C686        C687   1.410       .  A
C686        C691   1.518       .  S
C687        C688   1.404       .  A
C687        H692   1.083       .  S
C688        C689   1.419       .  A
C689        C690   1.402       .  A
C689        C693   1.520   1_545  S
C690        H694   1.084       .  S
C691        F704   1.385       .  S
C691        F705   1.383       .  S
C691        F706   1.381       .  S
C693        F701   1.385       .  S
C693        F702   1.383       .  S
C693        F703   1.380       .  S
