geometry optimzed in LAMMPS
_audit_creation_date              2020-11-30 
_audit_creation_method            'lammps2cif' 
_symmetry_space_group_name_H-M    'P1' 
_symmetry_Int_Tables_number       1 
_symmetry_cell_setting            triclinic 
loop_ 
_symmetry_equiv_pos_as_xyz 
  x,y,z 
_cell_length_a                    68.41249870657427 
_cell_length_b                    68.44182783794191 
_cell_length_c                    68.43492543003076 
_cell_angle_alpha                 90.06197546367372 
_cell_angle_beta                  90.01361864707107 
_cell_angle_gamma                 90.08636978201619 
loop_ 
_atom_site_label 
_atom_site_type_symbol 
_atom_site_fract_x 
_atom_site_fract_y 
_atom_site_fract_z 
_atom_site_charge 
O1          O  0.98209781  0.23628025  0.02930015    -0.88680
C2          C  0.96887211  0.23926399  0.97095684     0.87350
Mg3        Mg  0.98604463  0.26197824  0.04719915     1.58150
O4          O  0.01606074  0.22334481  0.98280020    -0.88410
O5          O  0.99503966  0.20825570  0.02122286    -0.75740
C6          C  0.05088190  0.31341827  0.99957367     0.92400
O7          O  0.95741418  0.26897377  0.00626868    -0.75550
O8          O  0.03584818  0.31446064  0.01034013    -0.83060
Mg9        Mg  0.95627975  0.23579286  0.01158366     1.57960
C10         C  0.06240399  0.24774084  0.95063393     0.92320
O11         O  0.95137283  0.20334323  0.01747616    -0.81320
H12         H  0.03470694  0.20427522  0.99466993    -0.06660
C13         C  0.01127260  0.28194835  0.96943215     0.87260
O14         O  0.01957709  0.25861262  0.04471730    -0.75830
O15         O  0.97341592  0.23036400  0.98597706    -0.88590
O16         O  0.04730790  0.23691100  0.95044031    -0.81400
C17         C  0.00004474  0.19958886  0.94002330     0.92440
C18         C  0.95132364  0.18821891  0.00671202     0.92290
Mg19       Mg  0.04645279  0.26588704  0.99118736     1.57950
O20         O  0.05426947  0.29865261  0.98875919    -0.81330
O21         O  0.04397743  0.23248267  0.99533417    -0.75570
O22         O  0.98965307  0.19556162  0.95497143    -0.81410
O23         O  0.93811732  0.24068770  0.03808819    -0.83120
O24         O  0.01399303  0.30336301  0.04782229    -0.81440
C25         C  0.03162302  0.21930697  0.99096773     0.86730
O26         O  0.02800874  0.27074086  0.01644619    -0.88580
O27         O  0.02016429  0.26698176  0.97411698    -0.88690
O28         O  0.00524291  0.29397513  0.98218242    -0.75740
Mg29       Mg  0.99118784  0.20454600  0.98780095     1.57970
O30         O  0.01008310  0.21511427  0.93904950    -0.83120
H31         H  0.99426732  0.21857332  0.04907578    -0.06840
O32         O  0.98427828  0.27863165  0.02071303    -0.88390
H33         H  0.96595538  0.29736770  0.00781427    -0.06670
H34         H  0.04764471  0.25972727  0.03505554    -0.06840
C35         C  0.96909363  0.28238460  0.01167441     0.86710
C36         C  0.99054032  0.22104351  0.03392984     0.87290
C37         C  0.03247800  0.26298949  0.03209589     0.87340
H38         H  0.00798879  0.28451850  0.95419773    -0.06820
O39         O  0.98172541  0.24550326  0.95913776    -0.75850
Mg40       Mg  0.00956810  0.29625567  0.01533809     1.58000
H41         H  0.95364624  0.24243824  0.96819537    -0.06840
C42         C  0.93884514  0.25261675  0.05223386     0.92330
O43         O  0.99001540  0.28990581  0.06511502    -0.83080
C44         C  0.00292694  0.30307339  0.06274184     0.92390
O45         O  0.96372846  0.18591264  0.99302062    -0.83060
Mg46       Mg  0.01490967  0.24140886  0.95706351     1.58180
O47         O  0.95320780  0.26419688  0.05471881    -0.81400
O48         O  0.06476047  0.26105962  0.96343387    -0.83090
O49         O  0.03763231  0.97387314  0.28658296    -0.88680
C50         C  0.99928090  0.92905311  0.27849408     0.87350
Mg51       Mg  0.03090984  0.99727385  0.30623845     1.58150
O52         O  0.99952447  0.96414133  0.24045389    -0.88410
O53         O  0.04360193  0.97070031  0.25547524    -0.75740
C54         C  0.94066189  0.02677335  0.28688718     0.92400
O55         O  0.00890215  0.95481356  0.31843063    -0.75550
O56         O  0.95190112  0.02557197  0.30167749    -0.83060
Mg57       Mg  0.03398786  0.94459939  0.29833164     1.57960
C58         C  0.94439244  0.98234351  0.21924339     0.92320
O59         O  0.05917596  0.92895331  0.28123238    -0.81320
H60         H  0.01323630  0.97795842  0.21868867    -0.06660
C61         C  0.95552626  0.97063427  0.28020699     0.87260
O62         O  0.01990671  0.01705253  0.28147859    -0.75830
O63         O  0.01361499  0.93936805  0.27470746    -0.88590
O64         O  0.95506021  0.96712395  0.22041026    -0.81400
C65         C  0.99269251  0.91602463  0.22179639     0.92440
C66         C  0.06030807  0.92050620  0.26458563     0.92290
Mg67       Mg  0.96891207  0.00377455  0.25410414     1.57950
O68         O  0.94386476  0.01728840  0.27121624    -0.81330
O69         O  0.99351104  0.99456506  0.23331707    -0.75570
O70         O  0.00843758  0.92010830  0.23078991    -0.81410
O71         O  0.05546646  0.95092214  0.32360676    -0.83120
O72         O  0.99411638  0.03056015  0.32124203    -0.81440
C73         C  0.00244069  0.97865691  0.23019807     0.86730
O74         O  0.98899112  0.01000959  0.27740136    -0.88580
O75         O  0.96533363  0.97456095  0.26558861    -0.88690
O76         O  0.95830559  0.97937121  0.29633760    -0.75740
Mg77       Mg  0.02410305  0.94549503  0.24542127     1.57970
O78         O  0.97721754  0.92610667  0.22394451    -0.83120
H79         H  0.05806052  0.98973975  0.27302812    -0.06840
O80         O  0.00219761  0.98512954  0.31104050    -0.88390
H81         H  0.98827647  0.97090831  0.33242339    -0.06670
H82         H  0.00229744  0.03112875  0.26223830    -0.06840
C83         C  0.99935699  0.97048345  0.32117129     0.86710
C84         C  0.04710019  0.97839887  0.27194171     0.87290
C85         C  0.00348476  0.01999879  0.27336802     0.87340
H86         H  0.94464495  0.95919348  0.27936580    -0.06820
O87         O  0.98292251  0.93160761  0.27011525    -0.75850
Mg88       Mg  0.97780710  0.00478942  0.30663709     1.58000
H89         H  0.00055869  0.91790041  0.28959505    -0.06840
C90         C  0.05565155  0.96579314  0.33484781     0.92330
O91         O  0.02443597  0.02133965  0.32794918    -0.83080
C92         C  0.00990536  0.03252182  0.33091792     0.92390
O93         O  0.04903479  0.92511973  0.25063398    -0.83060
Mg94       Mg  0.97106466  0.95105613  0.24541730     1.58180
O95         O  0.04533758  0.98079583  0.33105591    -0.81400
O96         O  0.94690192  0.99697380  0.23043505    -0.83090
C97         C  0.52369774  0.48878705  0.49508644     0.01950
C98         C  0.50811839  0.50220141  0.49662069     0.01950
C99         C  0.49383336  0.49997661  0.51140150     0.01950
C100        C  0.49490923  0.48436550  0.52491363     0.01950
C101        C  0.51010592  0.47046196  0.52306685     0.01950
C102        C  0.52435868  0.47257026  0.50800565     0.01950
C103        C  0.62072923  0.40672270  0.51572863     0.02800
C104        C  0.60765860  0.42198274  0.51165813    -0.13350
C105        C  0.58844570  0.41801107  0.50603507     0.00300
C106        C  0.58286480  0.39876465  0.50252598    -0.11880
C107        C  0.59567561  0.38327183  0.50610770     0.02790
C108        C  0.61469469  0.38719818  0.51296032    -0.11300
H109        H  0.61222173  0.43702132  0.51371882     0.08380
H110        H  0.56791864  0.39565275  0.49822010     0.05910
H111        H  0.62437910  0.37527595  0.51671707     0.05760
C112        C  0.43017318  0.59817518  0.52379434     0.02800
C113        C  0.44425008  0.58331962  0.52235035    -0.13350
C114        C  0.43870988  0.56372013  0.51992100     0.00300
C115        C  0.41875146  0.55967901  0.51728016    -0.11880
C116        C  0.40510983  0.57464139  0.51495277     0.02790
C117        C  0.41056456  0.59399297  0.51910368    -0.11300
H118        H  0.45948280  0.58739141  0.52285357     0.08380
H119        H  0.41354226  0.54478062  0.51624322     0.05910
H120        H  0.39979678  0.60556614  0.51862851     0.05760
C121        C  0.43046372  0.49082677  0.62354619     0.02800
C122        C  0.44462320  0.49080408  0.60863908    -0.13350
C123        C  0.43915253  0.49042077  0.58888093     0.00300
C124        C  0.41915044  0.48991993  0.58419631    -0.11880
C125        C  0.40485068  0.48974450  0.59893355     0.02790
C126        C  0.41054070  0.49061772  0.61861416    -0.11300
H127        H  0.45996885  0.49039508  0.61252041     0.08380
H128        H  0.41464119  0.48920707  0.56902544     0.05910
H129        H  0.39956671  0.49023239  0.63002172     0.05760
C130        C  0.62098582  0.49673539  0.42936633     0.02800
C131        C  0.60493944  0.50099167  0.44150724    -0.13350
C132        C  0.58578221  0.49526494  0.43643441     0.00300
C133        C  0.58309283  0.48715982  0.41765900    -0.11880
C134        C  0.59850354  0.48633119  0.40409508     0.02790
C135        C  0.61761904  0.49006079  0.41032939    -0.11300
H136        H  0.60798061  0.50766854  0.45548042     0.08380
H137        H  0.56915542  0.48125939  0.41329957     0.05910
H138        H  0.62973541  0.48716588  0.40057376     0.05760
C139        C  0.51290029  0.59999402  0.43008368     0.02800
C140        C  0.51217469  0.58677346  0.44583015    -0.13350
C141        C  0.51155675  0.56660792  0.44241567     0.00300
C142        C  0.51143930  0.55987676  0.42315396    -0.11880
C143        C  0.51110545  0.57271502  0.40730381     0.02790
C144        C  0.51214537  0.59295971  0.41072894    -0.11300
H145        H  0.51160153  0.59227236  0.46066865     0.08380
H146        H  0.51097190  0.54427280  0.42040285     0.05910
H147        H  0.51213342  0.60308637  0.39857972     0.05760
C148        C  0.52660442  0.40515017  0.61923685     0.02800
C149        C  0.52335209  0.41862953  0.60422096    -0.13350
C150        C  0.52258107  0.41275734  0.58456018     0.00300
C151        C  0.52272493  0.39248021  0.58067218    -0.11880
C152        C  0.52318379  0.37876364  0.59597626     0.02790
C153        C  0.52613993  0.38512289  0.61520979    -0.11300
H154        H  0.52102931  0.43371723  0.60820676     0.08380
H155        H  0.52188849  0.38703274  0.56586263     0.05910
H156        H  0.52716001  0.37463927  0.62701795     0.05760
O157        O  0.00966529  0.20797911  0.55547131    -0.88680
C158        C  0.99705303  0.21291832  0.49802743     0.87350
Mg159      Mg  0.01668695  0.23273084  0.57245551     1.58150
O160        O  0.04510344  0.19641670  0.50809687    -0.88410
O161        O  0.02461219  0.18106322  0.54730417    -0.75740
C162        C  0.08192111  0.28597787  0.52490529     0.92400
O163        O  0.98779495  0.24355936  0.53411363    -0.75550
O164        O  0.06901792  0.28777693  0.53817342    -0.83060
Mg165      Mg  0.98334554  0.21042244  0.53842174     1.57960
C166        C  0.09037886  0.22234900  0.47477326     0.92320
O167        O  0.97448253  0.17774857  0.54126167    -0.81320
H168        H  0.06362724  0.17692117  0.51947983    -0.06660
C169        C  0.04099313  0.25493149  0.49604878     0.87260
O170        O  0.04962234  0.22718055  0.56928205    -0.75830
O171        O  0.00143289  0.20449607  0.51335987    -0.88590
O172        O  0.07576032  0.21093334  0.47282547    -0.81400
C173        C  0.02476330  0.17246656  0.46653448     0.92440
C174        C  0.97824371  0.16209787  0.53183041     0.92290
Mg175      Mg  0.07530302  0.23841917  0.51701777     1.57950
O176        O  0.08216163  0.27134097  0.51335448    -0.81330
O177        O  0.07305438  0.20503823  0.52102996    -0.75570
O178        O  0.01487702  0.17149476  0.48225081    -0.81410
O179        O  0.96437789  0.21757981  0.56540416    -0.83120
O180        O  0.04372170  0.27796339  0.57598742    -0.81440
C181        C  0.06066870  0.19206681  0.51614405     0.86730
O182        O  0.05886296  0.24346607  0.54337229    -0.88580
O183        O  0.04885465  0.23922571  0.50006295    -0.88690
O184        O  0.03715884  0.26742989  0.50925475    -0.75740
Mg185      Mg  0.01967364  0.17884607  0.51441852     1.57970
O186        O  0.03717454  0.18606862  0.46363236    -0.83120
H187        H  0.02156629  0.19020861  0.57532410    -0.06840
O188        O  0.01591341  0.25146259  0.54718696    -0.88390
H189        H  0.99834501  0.27129460  0.53494595    -0.06670
H190        H  0.07780581  0.22900085  0.56022858    -0.06840
C191        C  0.00065592  0.25615219  0.53876202     0.86710
C192        C  0.01836441  0.19289070  0.56009115     0.87290
C193        C  0.06281546  0.23332966  0.55777248     0.87340
H194        H  0.03724748  0.25809077  0.48103643    -0.06820
O195        O  0.00993014  0.21777418  0.48557532    -0.75850
Mg196      Mg  0.04139768  0.26974847  0.54279433     1.58000
H197        H  0.98193685  0.21661143  0.49533034    -0.06840
C198        C  0.96793574  0.23023305  0.57862962     0.92330
O199        O  0.02310733  0.25808522  0.59072443    -0.83080
C200        C  0.03332738  0.27338551  0.59077335     0.92390
O201        O  0.99320406  0.16056178  0.52090146    -0.83060
Mg202      Mg  0.04312734  0.21369991  0.48189119     1.58180
O203        O  0.98474807  0.23804584  0.58017992    -0.81400
O204        O  0.09218223  0.23384594  0.48923627    -0.83090
C205        C  0.01508393  0.97277530  0.52710058     0.01950
C206        C  0.00051791  0.98724661  0.52757120     0.01950
C207        C  0.99943447  0.00179789  0.51282363     0.01950
C208        C  0.01303635  0.00174730  0.49710028     0.01950
C209        C  0.02778919  0.98704640  0.49658415     0.01950
C210        C  0.02850186  0.97254031  0.51149926     0.01950
C211        C  0.12453760  0.98823241  0.42808061     0.02800
C212        C  0.11964899  0.98030590  0.40969724    -0.13350
C213        C  0.10026810  0.97433717  0.40615584     0.00300
C214        C  0.08685518  0.97403493  0.42158070    -0.11880
C215        C  0.09078095  0.98379951  0.43921101     0.02790
C216        C  0.10940611  0.99208490  0.44153763    -0.11300
H217        H  0.13061837  0.97872730  0.39841609     0.08380
H218        H  0.07267822  0.96754192  0.41889784     0.05910
H219        H  0.11276749  0.00064791  0.45436601     0.05760
C220        C  0.01704910  0.09803825  0.42920333     0.02800
C221        C  0.01649029  0.09249908  0.40944135    -0.13350
C222        C  0.01503317  0.07266870  0.40435755     0.00300
C223        C  0.01426661  0.05841283  0.41907554    -0.11880
C224        C  0.01511921  0.06373878  0.43884713     0.02790
C225        C  0.01638211  0.08361043  0.44382433    -0.11300
H226        H  0.01701348  0.10353669  0.39811617     0.08380
H227        H  0.01319845  0.04310768  0.41510422     0.05910
H228        H  0.01676796  0.08787203  0.45907977     0.05760
C229        C  0.12334875  0.90434684  0.51757884     0.02800
C230        C  0.10894536  0.91886094  0.51711665    -0.13350
C231        C  0.08937082  0.91410234  0.51349264     0.00300
C232        C  0.08456652  0.89471477  0.50907967    -0.11880
C233        C  0.09901166  0.88033842  0.50763613     0.02790
C234        C  0.11847945  0.88502253  0.51243283    -0.11300
H235        H  0.11316309  0.93395239  0.51938318     0.08380
H236        H  0.06943816  0.89068622  0.50659630     0.05910
H237        H  0.12967447  0.87385595  0.51203323     0.05760
C238        C  0.92969651  0.09349397  0.53002549     0.02800
C239        C  0.94223363  0.07751886  0.53195501    -0.13350
C240        C  0.93775031  0.05950963  0.52316624     0.00300
C241        C  0.91905716  0.05722812  0.51485573    -0.11880
C242        C  0.90500616  0.07212113  0.51612768     0.02790
C243        C  0.91060697  0.09063419  0.52304940    -0.11300
H244        H  0.95638164  0.08001384  0.53856979     0.08380
H245        H  0.91522808  0.04402083  0.50712994     0.05910
H246        H  0.90054843  0.10280759  0.52218452     0.05760
C247        C  0.93207220  0.99373643  0.62169847     0.02800
C248        C  0.94654127  0.99565752  0.60738219    -0.13350
C249        C  0.94207801  0.99311218  0.58768955     0.00300
C250        C  0.92283560  0.98892075  0.58233864    -0.11880
C251        C  0.90844547  0.98536650  0.59644551     0.02790
C252        C  0.91301659  0.98803189  0.61636467    -0.11300
H253        H  0.96157057  0.99802337  0.61181299     0.08380
H254        H  0.91925397  0.98725804  0.56699162     0.05910
H255        H  0.90221320  0.98505337  0.62753432     0.05760
C256        C  0.01596871  0.90443105  0.62325451     0.02800
C257        C  0.01507952  0.91855155  0.60833370    -0.13350
C258        C  0.01577467  0.91305791  0.58842558     0.00300
C259        C  0.01736125  0.89298641  0.58405392    -0.11880
C260        C  0.01634186  0.87878698  0.59881620     0.02790
C261        C  0.01607496  0.88454497  0.61842384    -0.11300
H262        H  0.01407625  0.93380338  0.61240686     0.08380
H263        H  0.01931860  0.88816482  0.56913971     0.05910
H264        H  0.01596675  0.87361484  0.62987061     0.05760
O265        O  0.22072068  0.99866094  0.51254667    -0.88680
C266        C  0.25834629  0.95235374  0.52081942     0.87350
Mg267      Mg  0.22694407  0.02309770  0.49340190     1.58150
O268        O  0.25458516  0.98564298  0.55978384    -0.88410
O269        O  0.21181697  0.99189800  0.54245215    -0.75740
C270        C  0.31576797  0.05039981  0.51908205     0.92400
O271        O  0.25058187  0.97914006  0.48108702    -0.75550
O272        O  0.30543007  0.04719813  0.50399901    -0.83060
Mg273      Mg  0.22515475  0.96975401  0.50050807     1.57960
C274        C  0.30664160  0.00433491  0.58663519     0.92320
O275        O  0.19893535  0.95644079  0.51574744    -0.81320
H276        H  0.23917052  0.99915055  0.58060001    -0.06660
C277        C  0.30143443  0.99343591  0.52331633     0.87260
O278        O  0.23809287  0.04146985  0.51921476    -0.75830
O279        O  0.24384932  0.96240289  0.52448665    -0.88590
O280        O  0.29675290  0.98915361  0.58236493    -0.81400
C281        C  0.26165501  0.93823227  0.57830544     0.92440
C282        C  0.19523299  0.94517076  0.52999308     0.92290
Mg283      Mg  0.28659361  0.02631695  0.54994476     1.57950
O284        O  0.31281313  0.04138657  0.53510886    -0.81330
O285        O  0.26035685  0.01586868  0.56825250    -0.75570
O286        O  0.24606829  0.94000774  0.56827625    -0.81410
O287        O  0.20459257  0.97756989  0.47657507    -0.83120
O288        O  0.26560667  0.05243977  0.48290000    -0.81440
C289        C  0.25092744  0.99999449  0.57007905     0.86730
O290        O  0.26796785  0.03221141  0.52540447    -0.88580
O291        O  0.29114794  0.99765186  0.53749612    -0.88690
O292        O  0.29888487  0.00143235  0.50684594    -0.75740
Mg293      Mg  0.23071754  0.96607143  0.55307980     1.57970
O294        O  0.27611340  0.94954462  0.57572676    -0.83120
H295        H  0.19922648  0.01313813  0.52602406    -0.06840
O296        O  0.25560311  0.00948500  0.48917581    -0.88390
H297        H  0.27033169  0.99658749  0.46751936    -0.06670
H298        H  0.25513217  0.05396826  0.54004208    -0.06840
C299        C  0.25913798  0.99534804  0.47859404     0.86710
C300        C  0.21007670  0.00169667  0.52679422     0.87290
C301        C  0.25398488  0.04311042  0.52861041     0.87340
H302        H  0.31223551  0.98201897  0.52475315    -0.06820
O303        O  0.27434196  0.95487454  0.52983687    -0.75850
Mg304      Mg  0.28032459  0.02711901  0.49670308     1.58000
H305        H  0.25756809  0.94160945  0.50925736    -0.06840
C306        C  0.20018107  0.99234368  0.46631378     0.92330
O307        O  0.23468795  0.04951583  0.47369485    -0.83080
C308        C  0.25079886  0.05898391  0.47402391     0.92390
O309        O  0.20574012  0.94507110  0.54534463    -0.83060
Mg310      Mg  0.28364854  0.97387267  0.55584581     1.58180
O311        O  0.20978607  0.00836096  0.46743970    -0.81400
O312        O  0.30644005  0.01947872  0.57586097    -0.83090
C313        C  0.00327659  0.50525284  0.01919878     0.01950
C314        C  0.01698500  0.50387511  0.00369178     0.01950
C315        C  0.03183927  0.48963151  0.00424153     0.01950
C316        C  0.03242165  0.47578170  0.01950409     0.01950
C317        C  0.01784521  0.47588157  0.03432010     0.01950
C318        C  0.00334513  0.49089842  0.03438091     0.01950
C319        C  0.12505502  0.40429627  0.01273745     0.02800
C320        C  0.11860493  0.38499327  0.00991594    -0.13350
C321        C  0.09851308  0.38112969  0.00867738     0.00300
C322        C  0.08509296  0.39643144  0.00990846    -0.11880
C323        C  0.09133697  0.41574810  0.01174033     0.02790
C324        C  0.11139563  0.41963461  0.01329044    -0.11300
H325        H  0.12901599  0.37309106  0.00945807     0.08380
H326        H  0.06957851  0.39315107  0.00979193     0.05910
H327        H  0.11641338  0.43455399  0.01512741     0.05760
C328        C  0.03047507  0.40049780  0.12213026     0.02800
C329        C  0.03056166  0.41420302  0.10699772    -0.13350
C330        C  0.02131716  0.41037251  0.08900128     0.00300
C331        C  0.01358878  0.39151747  0.08596475    -0.11880
C332        C  0.01610553  0.37666499  0.09996283     0.02790
C333        C  0.02358074  0.38152375  0.11847334    -0.11300
H334        H  0.03688375  0.42839298  0.10994641     0.08380
H335        H  0.00559669  0.38815420  0.07278819     0.05910
H336        H  0.02391238  0.37066348  0.12997393     0.05760
C337        C  0.92890871  0.48493464  0.12357775     0.02800
C338        C  0.94350762  0.48671947  0.10927958    -0.13350
C339        C  0.93877416  0.48687778  0.08939318     0.00300
C340        C  0.91909745  0.48593428  0.08377936    -0.11880
C341        C  0.90422483  0.48467413  0.09791981     0.02790
C342        C  0.90918146  0.48422841  0.11787526    -0.11300
H343        H  0.95872467  0.48746250  0.11366408     0.08380
H344        H  0.91533369  0.48618949  0.06839184     0.05910
H345        H  0.89783357  0.48274803  0.12881513     0.05760
C346        C  0.12298644  0.49322831  0.93174419     0.02800
C347        C  0.10878152  0.48984087  0.94600395    -0.13350
C348        C  0.08890002  0.48836862  0.94113412     0.00300
C349        C  0.08373484  0.48921450  0.92124003    -0.11880
C350        C  0.09811780  0.49075265  0.90656988     0.02790
C351        C  0.11781689  0.49301331  0.91192159    -0.11300
H352        H  0.11341089  0.48895554  0.96111451     0.08380
H353        H  0.06852488  0.48913724  0.91698480     0.05910
H354        H  0.12891076  0.49507859  0.90081777     0.05760
C355        C  0.01769610  0.59444073  0.93178053     0.02800
C356        C  0.01793132  0.57969134  0.94591849    -0.13350
C357        C  0.01362734  0.56029634  0.94097613     0.00300
C358        C  0.00790678  0.55591034  0.92186447    -0.11880
C359        C  0.00699366  0.57059455  0.90762702     0.02790
C360        C  0.01192903  0.58996379  0.91256615    -0.11300
H361        H  0.02152144  0.58339188  0.96090473     0.08380
H362        H  0.00480949  0.54089590  0.91783176     0.05910
H363        H  0.01156515  0.60131118  0.90155120     0.05760
C364        C  0.92878000  0.59681763  0.01191949     0.02800
C365        C  0.94377625  0.58332168  0.01584986    -0.13350
C366        C  0.94166039  0.56345570  0.01080663     0.00300
C367        C  0.92442231  0.55779560  0.00134416    -0.11880
C368        C  0.90821256  0.57023596  0.00042609     0.02790
C369        C  0.91054682  0.59008459  0.00515130    -0.11300
H370        H  0.95718119  0.58864267  0.02234516     0.08380
H371        H  0.92290659  0.54310891  0.99570430     0.05910
H372        H  0.89841965  0.60012000  0.00363794     0.05760
O373        O  0.98962257  0.50808752  0.25167977    -0.88680
C374        C  0.02913971  0.50046643  0.20783403     0.87350
Mg375      Mg  0.99558850  0.52739933  0.27563190     1.58150
O376        O  0.02710750  0.46146180  0.24162311    -0.88410
O377        O  0.98346241  0.47709230  0.24717999    -0.75740
C378        C  0.08412150  0.50609536  0.30731249     0.92400
O379        O  0.01931341  0.54013187  0.23382726    -0.75550
O380        O  0.07372692  0.52146591  0.30583753    -0.83060
Mg381      Mg  0.99417934  0.52061226  0.22266725     1.57960
C382        C  0.08049873  0.43954684  0.26322706     0.92320
O383        O  0.96890213  0.50384323  0.20678756    -0.81320
H384        H  0.01179030  0.44032444  0.25469698    -0.06660
C385        C  0.07110579  0.50062597  0.25088291     0.87260
O386        O  0.00527380  0.50277776  0.29596809    -0.75830
O387        O  0.01440496  0.49681046  0.21760769    -0.88590
O388        O  0.07191951  0.44110615  0.24670095    -0.81400
C389        C  0.03563160  0.44430715  0.19339311     0.92440
C390        C  0.96735901  0.48747440  0.19788764     0.92290
Mg391      Mg  0.05515522  0.47469092  0.28319129     1.57950
O392        O  0.08006116  0.49049180  0.29810108    -0.81330
O393        O  0.03043968  0.45486249  0.27259420    -0.75570
O394        O  0.02029162  0.45437786  0.19642273    -0.81410
O395        O  0.97328522  0.54687787  0.22831546    -0.83120
O396        O  0.03180387  0.54291108  0.30961039    -0.81440
C397        C  0.02284432  0.45154615  0.25604243     0.86730
O398        O  0.03603706  0.49852043  0.28900410    -0.88580
O399        O  0.06083557  0.48617279  0.25422149    -0.88690
O400        O  0.06836489  0.51670154  0.25969736    -0.75740
Mg401      Mg  0.00351956  0.46754509  0.22213561     1.57970
O402        O  0.05042042  0.44524546  0.20469628    -0.83120
H403        H  0.96880592  0.49403368  0.26659122    -0.06840
O404        O  0.02472728  0.53234587  0.26433048    -0.88390
H405        H  0.03949387  0.55367630  0.25089295    -0.06670
H406        H  0.02279600  0.48380841  0.31046825    -0.06840
C407        C  0.02825148  0.54260053  0.24991286     0.86710
C408        C  0.97998794  0.49330448  0.25545997     0.87290
C409        C  0.02162471  0.49473420  0.29913683     0.87340
H410        H  0.08237037  0.49970467  0.23984428    -0.06820
O411        O  0.04516477  0.49153613  0.21064913    -0.75850
Mg412      Mg  0.04842738  0.52739000  0.28451249     1.58000
H413        H  0.02848323  0.51180028  0.19686199    -0.06840
C414        C  0.97334630  0.55742614  0.24370128     0.92330
O415        O  0.00142651  0.54917073  0.29978926    -0.83080
C416        C  0.01592839  0.55259794  0.31088671     0.92390
O417        O  0.97903238  0.47348566  0.20137163    -0.83060
Mg418      Mg  0.05613120  0.46633619  0.23015017     1.58180
O419        O  0.98225213  0.55189174  0.25896584    -0.81400
O420        O  0.07611605  0.45059825  0.27738457    -0.83090
O421        O  0.25356483  0.46245940  0.03770906    -0.88680
C422        C  0.20886314  0.50068377  0.03027234     0.87350
Mg423      Mg  0.27734319  0.46902951  0.05672420     1.58150
O424        O  0.24254417  0.49860850  0.99094026    -0.88410
O425        O  0.24881777  0.45504649  0.00710071    -0.75740
C426        C  0.30692160  0.55783886  0.03450097     0.92400
O427        O  0.23576806  0.49154059  0.06996623    -0.75550
O428        O  0.30620100  0.54715858  0.04969417    -0.83060
Mg429      Mg  0.22514551  0.46608146  0.05051013     1.57960
C430        C  0.26270144  0.55262222  0.96783326     0.92320
O431        O  0.21020921  0.44056856  0.03436555    -0.81320
H432        H  0.25576826  0.48352626  0.96972352    -0.06660
C433        C  0.25104566  0.54342809  0.02933140     0.87260
O434        O  0.29676917  0.47833345  0.03120716    -0.75830
O435        O  0.21886243  0.48608326  0.02677135    -0.88590
O436        O  0.24647683  0.54351926  0.96970022    -0.81400
C437        C  0.19392923  0.50562269  0.97412962     0.92440
C438        C  0.20041237  0.43861405  0.01863323     0.92290
Mg439      Mg  0.28343614  0.52820442  0.00324468     1.57950
O440        O  0.29746099  0.55367060  0.01905823    -0.81330
O441        O  0.27325638  0.50303911  0.98364827    -0.75570
O442        O  0.19769635  0.49046544  0.98417451    -0.81410
O443        O  0.23311648  0.44414808  0.07480470    -0.83120
O444        O  0.31122268  0.50578822  0.07117064    -0.81440
C445        C  0.25693268  0.49473663  0.98080215     0.86730
O446        O  0.28993325  0.50920229  0.02704052    -0.88580
O447        O  0.25444557  0.53312143  0.01492267    -0.88690
O448        O  0.26016407  0.54106828  0.04530100    -0.75740
Mg449      Mg  0.22345246  0.47460632  0.99755655     1.57970
O450        O  0.20482500  0.52075273  0.97457587    -0.83120
H451        H  0.26859465  0.44129184  0.02435313    -0.06840
O452        O  0.26580505  0.49792331  0.06118006    -0.88390
H453        H  0.25253225  0.51246203  0.08277946    -0.06670
H454        H  0.31075266  0.49568143  0.01166825    -0.06840
C455        C  0.25158385  0.50111126  0.07181943     0.86710
C456        C  0.25733130  0.45229800  0.02330642     0.87290
C457        C  0.29980671  0.49465899  0.02300916     0.87340
H458        H  0.23974275  0.55441505  0.02845854    -0.06820
O459        O  0.21127853  0.51656452  0.02096367    -0.75850
Mg460      Mg  0.28552323  0.52173072  0.05588725     1.58000
H461        H  0.19802279  0.50003626  0.04174730    -0.06840
C462        C  0.24824504  0.44463655  0.08565926     0.92330
O463        O  0.30191413  0.47535218  0.07695178    -0.83080
C464        C  0.31323836  0.48965666  0.08022573     0.92390
O465        O  0.20273135  0.44991641  0.00410935    -0.83060
Mg466      Mg  0.23037301  0.52750975  0.99534610     1.58180
O467        O  0.26146053  0.45744318  0.08333488    -0.81400
O468        O  0.27706386  0.54898032  0.97898444    -0.83090
C469        C  0.53052636  0.97559106  0.02010615     0.01950
C470        C  0.53140976  0.98892843  0.00438394     0.01950
C471        C  0.51694400  0.00352005  0.00217300     0.01950
C472        C  0.50222225  0.00571695  0.01648262     0.01950
C473        C  0.50116596  0.99236898  0.03235546     0.01950
C474        C  0.51493241  0.97683508  0.03362426     0.01950
C475        C  0.42991114  0.09806807  0.01427031     0.02800
C476        C  0.44506950  0.08431733  0.01323214    -0.13350
C477        C  0.44098817  0.06421727  0.01318231     0.00300
C478        C  0.42140724  0.05807428  0.01436409    -0.11880
C479        C  0.40610293  0.07175480  0.01481968     0.02790
C480        C  0.41041470  0.09178342  0.01474699    -0.11300
H481        H  0.46009563  0.08933257  0.01264783     0.08380
H482        H  0.41800458  0.04262124  0.01497526     0.05910
H483        H  0.39869791  0.10240206  0.01537166     0.05760
C484        C  0.42819018  0.98989644  0.12374448     0.02800
C485        C  0.44055559  0.99659411  0.10874872    -0.13350
C486        C  0.43800608  0.99050667  0.08928274     0.00300
C487        C  0.42123520  0.97953173  0.08482694    -0.11880
C488        C  0.40671673  0.97616974  0.09886478     0.02790
C489        C  0.41061767  0.98044247  0.11864739    -0.11300
H490        H  0.45315230  0.00525492  0.11281886     0.08380
H491        H  0.41908492  0.97366741  0.07034230     0.05910
H492        H  0.40032111  0.97607717  0.12983663     0.05760
C493        C  0.52254772  0.09369116  0.92946156     0.02800
C494        C  0.52028311  0.07903839  0.94343839    -0.13350
C495        C  0.52020943  0.05925347  0.93822448     0.00300
C496        C  0.51926994  0.05452415  0.91816856    -0.11880
C497        C  0.51916714  0.06941004  0.90389814     0.02790
C498        C  0.52150161  0.08898685  0.90957920    -0.11300
H499        H  0.51912815  0.08327574  0.95863491     0.08380
H500        H  0.51861586  0.03940836  0.91353440     0.05910
H501        H  0.52254064  0.10039103  0.89865997     0.05760
C502        C  0.51604801  0.90466610  0.12534657     0.02800
C503        C  0.51094609  0.88551751  0.11976896    -0.13350
C504        C  0.50612253  0.88150274  0.10010385     0.00300
C505        C  0.50671104  0.89662452  0.08631214    -0.11880
C506        C  0.51145315  0.91572038  0.09185048     0.02790
C507        C  0.51541565  0.91968448  0.11151613    -0.11300
H508        H  0.51084114  0.87391987  0.13052100     0.08380
H509        H  0.50384635  0.89336393  0.07107032     0.05910
H510        H  0.51818983  0.93457527  0.11616355     0.05760
C511        C  0.62313172  0.98546367  0.93373885     0.02800
C512        C  0.61022360  0.98195766  0.94919453    -0.13350
C513        C  0.59062156  0.97745196  0.94564789     0.00300
C514        C  0.58440932  0.97500057  0.92638572    -0.11880
C515        C  0.59727423  0.97764369  0.91070822     0.02790
C516        C  0.61682360  0.98296739  0.91432242    -0.11300
H517        H  0.61527648  0.98392649  0.96409226     0.08380
H518        H  0.56904994  0.97264747  0.92333325     0.05910
H519        H  0.62665061  0.98598201  0.90229031     0.05760
C520        C  0.62315658  0.90369769  0.01788401     0.02800
C521        C  0.60841179  0.91802598  0.01851137    -0.13350
C522        C  0.58847738  0.91286657  0.01952057     0.00300
C523        C  0.58367851  0.89290529  0.02025106    -0.11880
C524        C  0.59810759  0.87842428  0.01838695     0.02790
C525        C  0.61789267  0.88385428  0.01763278    -0.11300
H526        H  0.61261675  0.93328054  0.01813355     0.08380
H527        H  0.56862283  0.88842098  0.02208918     0.05910
H528        H  0.62908445  0.87274353  0.01635240     0.05760
O529        O  0.53874584  0.00124870  0.28958256    -0.88680
C530        C  0.52828390  0.04626969  0.25144880     0.87350
Mg531      Mg  0.55812861  0.97749372  0.28322348     1.58150
O532        O  0.48976614  0.01153300  0.25360271    -0.88410
O533        O  0.50778917  0.00495192  0.29659550    -0.75740
C534        C  0.53228568  0.94679371  0.19531752     0.92400
O535        O  0.56868730  0.01963562  0.25842367    -0.75550
O536        O  0.54725289  0.94612423  0.20635872    -0.83060
Mg537      Mg  0.55010063  0.03036785  0.28438477     1.57960
C538        C  0.46807522  0.99237451  0.19855995     0.92320
O539        O  0.53457744  0.04552660  0.31050507    -0.81320
H540        H  0.46872282  0.99783258  0.26853644    -0.06660
C541        C  0.52874201  0.00375946  0.20908027     0.87260
O542        O  0.53259701  0.95771617  0.27381188    -0.75830
O543        O  0.52539751  0.03540666  0.26552092    -0.88590
O544        O  0.46854950  0.00831516  0.20828644    -0.81400
C545        C  0.47198814  0.05982870  0.24751584     0.92440
C546        C  0.51826383  0.05414007  0.31331649     0.92290
Mg547      Mg  0.50306064  0.97157409  0.22387354     1.57950
O548        O  0.51940195  0.95992367  0.19746928    -0.81330
O549        O  0.48307030  0.98067638  0.24907541    -0.75570
O550        O  0.48201488  0.05574610  0.26261325    -0.81410
O551        O  0.57639902  0.02493267  0.30426155    -0.83120
O552        O  0.57058102  0.94288893  0.24677499    -0.81440
C553        C  0.47986465  0.99692644  0.25737751     0.86730
O554        O  0.52688854  0.96516740  0.24337535    -0.88580
O555        O  0.51429768  0.00068254  0.21948708    -0.88690
O556        O  0.54441657  0.99394882  0.21102694    -0.75740
Mg557      Mg  0.49673529  0.03024347  0.27776093     1.57970
O558        O  0.47278508  0.04956260  0.23194948    -0.83120
H559        H  0.52548967  0.98563247  0.31037482    -0.06840
O560        O  0.56228704  0.98863028  0.25380730    -0.88390
H561        H  0.58212358  0.00298966  0.23787279    -0.06670
H562        H  0.51208400  0.94410887  0.25719265    -0.06840
C563        C  0.57158844  0.00353866  0.24963246     0.86710
C564        C  0.52426794  0.99699364  0.29948490     0.87290
C565        C  0.52344024  0.95508352  0.25790304     0.87340
H566        H  0.52808390  0.01512685  0.19814385    -0.06820
O567        O  0.51894115  0.04415245  0.23558801    -0.75850
Mg568      Mg  0.55539994  0.96840491  0.23041621     1.58000
H569        H  0.53930775  0.05755464  0.25251780    -0.06840
C570        C  0.58757168  0.01013550  0.30568365     0.92330
O571        O  0.57882272  0.95259457  0.27674909    -0.83080
C572        C  0.58050295  0.94083000  0.26245266     0.92390
O573        O  0.50353082  0.05082000  0.30251996    -0.83060
Mg574      Mg  0.49396769  0.02440272  0.22482717     1.58180
O575        O  0.58390029  0.99411085  0.29687713    -0.81400
O576        O  0.47910284  0.97810893  0.20273767    -0.83090
O577        O  0.50135059  0.23611877  0.04776671    -0.88680
C578        C  0.56023214  0.23325943  0.05960179     0.87350
Mg579      Mg  0.48323950  0.21136503  0.04116280     1.58150
O580        O  0.54672095  0.25108199  0.01358900    -0.88410
O581        O  0.50848229  0.26487242  0.03607235    -0.75740
C582        C  0.53221534  0.16226981  0.97474187     0.92400
O583        O  0.52498863  0.20119555  0.06895893    -0.75550
O584        O  0.52050022  0.16036105  0.98894068    -0.83060
Mg585      Mg  0.51992419  0.23391948  0.07326933     1.57960
C586        C  0.57938523  0.22910647  0.96602398     0.92320
O587        O  0.51546567  0.26550654  0.08235269    -0.81320
H588        H  0.53433933  0.27077973  0.99594384    -0.06660
C589        C  0.56116770  0.19282393  0.01558723     0.87260
O590        O  0.48637130  0.21686962  0.00811174    -0.75830
O591        O  0.54469390  0.24164403  0.05586506    -0.88590
O592        O  0.57845138  0.24052431  0.98064090    -0.81400
C593        C  0.58868792  0.27559325  0.02992631     0.92440
C594        C  0.52354901  0.28221071  0.08112046     0.92290
Mg595      Mg  0.53933482  0.20982999  0.98117052     1.57950
O596        O  0.54284714  0.17737990  0.97246337    -0.81330
O597        O  0.53448265  0.24308844  0.98516763    -0.75570
O598        O  0.57422442  0.27796933  0.04144044    -0.81410
O599        O  0.49401990  0.22654737  0.09183424    -0.83120
O600        O  0.48303561  0.17046057  0.01177159    -0.81440
C601        C  0.53842077  0.25570783  0.99825185     0.86730
O602        O  0.51402196  0.20390944  0.99890120    -0.88580
O603        O  0.55642465  0.20813650  0.00732741    -0.88690
O604        O  0.54847890  0.18025597  0.02064730    -0.75740
Mg605      Mg  0.54164392  0.26854798  0.03949008     1.57970
O606        O  0.59012409  0.26091849  0.01874516    -0.83120
H607        H  0.48082132  0.25427604  0.03775927    -0.06840
O608        O  0.50945804  0.19380560  0.04204179    -0.88390
H609        H  0.52245664  0.17355888  0.05855215    -0.06670
H610        H  0.49589887  0.21683059  0.98001654    -0.06840
C611        C  0.51877606  0.18879525  0.05665640     0.86710
C612        C  0.49615663  0.25180645  0.04062385     0.87290
C613        C  0.49870186  0.21253854  0.99495023     0.87340
H614        H  0.57638201  0.19029901  0.01901391    -0.06820
O615        O  0.57204526  0.22831035  0.04618877    -0.75850
Mg616      Mg  0.51524506  0.17759849  0.01605386     1.58000
H617        H  0.56352213  0.22945679  0.07457409    -0.06840
C618        C  0.47877001  0.21623975  0.08947690     0.92330
O619        O  0.46449995  0.18466533  0.03436825    -0.83080
C620        C  0.46711815  0.17173253  0.02125810     0.92390
O621        O  0.53550881  0.28624722  0.06740849    -0.83060
Mg622      Mg  0.57305755  0.23404721  0.01317267     1.58180
O623        O  0.47469565  0.20779178  0.07341133    -0.81400
O624        O  0.56697983  0.21550062  0.96349793    -0.83090
O625        O  0.50357707  0.44004408  0.26235918    -0.88680
C626        C  0.55028750  0.47634857  0.27192952     0.87350
Mg627      Mg  0.47997959  0.44741551  0.24298332     1.58150
O628        O  0.51636752  0.47354162  0.31035555    -0.88410
O629        O  0.50867692  0.43109061  0.29255127    -0.75740
C630        C  0.44987047  0.53381662  0.27174314     0.92400
O631        O  0.52376724  0.47089913  0.23269307    -0.75550
O632        O  0.45381794  0.52363423  0.25675334    -0.83060
Mg633      Mg  0.53273352  0.44438959  0.25103818     1.57960
C634        C  0.49999022  0.52569197  0.33806108     0.92320
O635        O  0.54541963  0.41735819  0.26562692    -0.81320
H636        H  0.50342104  0.45879303  0.33198228    -0.06660
C637        C  0.50879588  0.52122343  0.27453020     0.87260
O638        O  0.46119508  0.45766470  0.26921136    -0.75830
O639        O  0.53971436  0.46218468  0.27546817    -0.88590
O640        O  0.51460371  0.51589626  0.33235355    -0.81400
C641        C  0.56381961  0.47833691  0.32915327     0.92440
C642        C  0.55577577  0.41344175  0.28053264     0.92290
Mg643      Mg  0.47633040  0.50635262  0.30176941     1.57950
O644        O  0.46006562  0.53275035  0.28734465    -0.81330
O645        O  0.48676230  0.48018325  0.32001436    -0.75570
O646        O  0.56120142  0.46303123  0.31893330    -0.81410
O647        O  0.52570018  0.42523137  0.22590159    -0.83120
O648        O  0.44837787  0.48488186  0.23498829    -0.81440
C649        C  0.50242088  0.47039415  0.32132012     0.86730
O650        O  0.47018476  0.48735883  0.27699185    -0.88580
O651        O  0.50505955  0.51055152  0.28854917    -0.88690
O652        O  0.50019116  0.51906243  0.25828082    -0.75740
Mg653      Mg  0.53488649  0.44901160  0.30366783     1.57970
O654        O  0.55370517  0.49368334  0.32670742    -0.83120
H655        H  0.48778936  0.41908365  0.27520699    -0.06840
O656        O  0.49326741  0.47609845  0.24025906    -0.88390
H657        H  0.50713662  0.49184839  0.21995099    -0.06670
H658        H  0.44872527  0.47339567  0.29109659    -0.06840
C659        C  0.50782118  0.48000850  0.23036694     0.86710
C660        C  0.49959554  0.42952939  0.27645536     0.87290
C661        C  0.45954766  0.47299598  0.27959436     0.87340
H662        H  0.52014063  0.53214467  0.27592377    -0.06820
O663        O  0.54799994  0.49250263  0.28065465    -0.75850
Mg664      Mg  0.47460111  0.49993824  0.24836480     1.58000
H665        H  0.56118724  0.47518820  0.26055795    -0.06840
C666        C  0.51136604  0.42277948  0.21440957     0.92330
O667        O  0.45494869  0.45577788  0.22235957    -0.83080
C668        C  0.44416877  0.47086788  0.22353906     0.92390
O669        O  0.55495944  0.42365191  0.29604945    -0.83060
Mg670      Mg  0.52926000  0.50220403  0.30647495     1.58180
O671        O  0.49554839  0.43243566  0.21652814    -0.81400
O672        O  0.48419410  0.52614863  0.32810617    -0.83090
C673        C  0.24739001  0.47448224  0.26065503     0.01950
C674        C  0.24650786  0.48917251  0.27525733     0.01950
C675        C  0.26142009  0.50363040  0.27671756     0.01950
C676        C  0.27678540  0.50394009  0.26279365     0.01950
C677        C  0.27785432  0.48906183  0.24843171     0.01950
C678        C  0.26354133  0.47409423  0.24777623     0.01950
C679        C  0.26552883  0.40220207  0.15488375     0.02800
C680        C  0.26743395  0.41710712  0.16873594    -0.13350
C681        C  0.26793448  0.41296798  0.18878581     0.00300
C682        C  0.27019685  0.39324370  0.19427024    -0.11880
C683        C  0.27208745  0.37843480  0.18023794     0.02790
C684        C  0.26869326  0.38273869  0.16044647    -0.11300
H685        H  0.26824574  0.43193309  0.16351854     0.08380
H686        H  0.27055330  0.38892344  0.20943225     0.05910
H687        H  0.26855397  0.37119551  0.14961010     0.05760
C688        C  0.34917482  0.48681664  0.15527263     0.02800
C689        C  0.36852987  0.48458020  0.16164578    -0.13350
C690        C  0.37271667  0.48505892  0.18168001     0.00300
C691        C  0.35771161  0.48827853  0.19515845    -0.11880
C692        C  0.33823233  0.48998290  0.18904475     0.02790
C693        C  0.33406077  0.48910490  0.16899570    -0.11300
H694        H  0.38014558  0.48219469  0.15115653     0.08380
H695        H  0.36122816  0.48881912  0.21060383     0.05910
H696        H  0.31904167  0.48960369  0.16400841     0.05760
C697        C  0.15535901  0.40205921  0.26267297     0.02800
C698        C  0.16969541  0.41678744  0.26237159    -0.13350
C699        C  0.18959571  0.41204373  0.26183487     0.00300
C700        C  0.19510935  0.39234841  0.26123569    -0.11880
C701        C  0.18092809  0.37746699  0.26138020     0.02790
C702        C  0.16103509  0.38236448  0.26235256    -0.11300
H703        H  0.16533359  0.43200615  0.26278607     0.08380
H704        H  0.21047970  0.38857056  0.26061312     0.05910
H705        H  0.15006178  0.37094237  0.26282454     0.05760
C706        C  0.15498100  0.48941680  0.34756180     0.02800
C707        C  0.16078257  0.48703790  0.36715615    -0.13350
C708        C  0.18054217  0.48316650  0.37137019     0.00300
C709        C  0.19431482  0.48350738  0.35629259    -0.11880
C710        C  0.18855434  0.48382502  0.33670215     0.02790
C711        C  0.16855165  0.48603275  0.33262641    -0.11300
H712        H  0.15023268  0.48839515  0.37886826     0.08380
H713        H  0.20961129  0.48364763  0.36017491     0.05910
H714        H  0.16326549  0.48589565  0.31773465     0.05760
C715        C  0.37399678  0.57209037  0.27085928     0.02800
C716        C  0.35821561  0.55904250  0.27370066    -0.13350
C717        C  0.33954184  0.56269993  0.26582446     0.00300
C718        C  0.33617276  0.58183899  0.25894350    -0.11880
C719        C  0.35064057  0.59632472  0.25995092     0.02790
C720        C  0.36991657  0.59120609  0.26460713    -0.11300
H721        H  0.36111360  0.54573172  0.28150573     0.08380
H722        H  0.32222242  0.58627090  0.25317918     0.05910
H723        H  0.38145529  0.60192418  0.26312821     0.05760
C724        C  0.26494411  0.57153905  0.37359496     0.02800
C725        C  0.26858827  0.55604167  0.36051969    -0.13350
C726        C  0.26792999  0.55925822  0.34031179     0.00300
C727        C  0.26475133  0.57821982  0.33345302    -0.11880
C728        C  0.25888919  0.59321283  0.34602129     0.02790
C729        C  0.25931710  0.58995083  0.36631130    -0.11300
H730        H  0.27082293  0.54140574  0.36609657     0.08380
H731        H  0.26467566  0.58077976  0.31780512     0.05910
H732        H  0.25474905  0.60132006  0.37632371     0.05760
O733        O  0.28773482  0.51293759  0.50323301    -0.88680
C734        C  0.28176593  0.47673612  0.45617075     0.87350
Mg735      Mg  0.30649515  0.50594776  0.52731189     1.58150
O736        O  0.24203413  0.47599337  0.48948641    -0.88410
O737        O  0.25705234  0.51970259  0.49803163    -0.75740
C738        C  0.28525949  0.41472638  0.55191930     0.92400
O739        O  0.32057684  0.48512002  0.48450943    -0.75550
O740        O  0.29971190  0.42644719  0.55290622    -0.83060
Mg741      Mg  0.30081711  0.51052615  0.47454234     1.57960
C742        C  0.21989152  0.42072479  0.50532106     0.92320
O743        O  0.28437469  0.53645873  0.46005719    -0.81320
H744        H  0.22023514  0.48967870  0.50327064    -0.06660
C745        C  0.28179846  0.43199293  0.49636079     0.87260
O746        O  0.28100420  0.49429264  0.54565644    -0.75830
O747        O  0.27762439  0.49043617  0.46713880    -0.88590
O748        O  0.22233475  0.43085448  0.48988992    -0.81400
C749        C  0.22567626  0.47079707  0.44055400     0.92440
C750        C  0.26895233  0.53792181  0.44967643     0.92290
Mg751      Mg  0.25440331  0.44423212  0.52858904     1.57950
O752        O  0.27093796  0.41807988  0.54054024    -0.81330
O753        O  0.23429637  0.46945142  0.51972153    -0.75570
O754        O  0.23501156  0.48621161  0.44510958    -0.81410
O755        O  0.32515080  0.53201530  0.48299037    -0.83120
O756        O  0.32082081  0.46799804  0.55973345    -0.81440
C757        C  0.23155974  0.47870327  0.50391552     0.86730
O758        O  0.27742818  0.46386672  0.53681178    -0.88580
O759        O  0.26700511  0.44172930  0.49975803    -0.88690
O760        O  0.29732177  0.43418588  0.50631371    -0.75740
Mg761      Mg  0.24817638  0.50101063  0.47168184     1.57970
O762        O  0.22705763  0.45513972  0.45047429    -0.83120
H763        H  0.27345253  0.53304397  0.51885556    -0.06840
O764        O  0.31236491  0.47762816  0.51446165    -0.88390
H765        H  0.33413164  0.46410765  0.50044330    -0.06670
H766        H  0.26137116  0.47584312  0.55806100    -0.06840
C767        C  0.32290297  0.47519644  0.50001377     0.86710
C768        C  0.27296934  0.52250290  0.50709165     0.87290
C769        C  0.27290975  0.47771516  0.54743732     0.87340
H770        H  0.28162942  0.42159192  0.48446090    -0.06820
O771        O  0.27314456  0.46036660  0.45747334    -0.75850
Mg772      Mg  0.30665575  0.45263953  0.53298380     1.58000
H773        H  0.29328454  0.47858693  0.44551660    -0.06840
C774        C  0.33547469  0.53248118  0.49847817     0.92330
O775        O  0.32699376  0.49897352  0.55199356    -0.83080
C776        C  0.32992568  0.48405663  0.56259696     0.92390
O777        O  0.25466254  0.52626364  0.45188665    -0.83060
Mg778      Mg  0.24772418  0.44796297  0.47565596     1.58180
O779        O  0.33216892  0.52124719  0.51288793    -0.81400
O780        O  0.23054110  0.42304174  0.52035018    -0.83090
C781        C  0.51484287  0.22328089  0.27704690     0.01950
C782        C  0.50097265  0.22519805  0.26182634     0.01950
C783        C  0.50181332  0.24124985  0.24889691     0.01950
C784        C  0.51670123  0.25544827  0.25086739     0.01950
C785        C  0.53062760  0.25355930  0.26608925     0.01950
C786        C  0.52929356  0.23787358  0.27959117     0.01950
C787        C  0.43327933  0.23498071  0.15600394     0.02800
C788        C  0.44638937  0.24234317  0.16989180    -0.13350
C789        C  0.44117882  0.24372654  0.18964795     0.00300
C790        C  0.42145699  0.24078795  0.19459819    -0.11880
C791        C  0.40737474  0.23684283  0.18012896     0.02790
C792        C  0.41345223  0.23299182  0.16091287    -0.11300
H793        H  0.46133345  0.24508656  0.16543079     0.08380
H794        H  0.41694729  0.24070133  0.20972517     0.05910
H795        H  0.40305194  0.22758166  0.15026504     0.05760
C796        C  0.51149286  0.12911188  0.34834051     0.02800
C797        C  0.51141415  0.14204937  0.33235155    -0.13350
C798        C  0.50879551  0.16215647  0.33527668     0.00300
C799        C  0.50683313  0.16915577  0.35433643    -0.11880
C800        C  0.50627102  0.15656041  0.37043641     0.02790
C801        C  0.50868590  0.13636176  0.36740993    -0.11300
H802        H  0.51322976  0.13639674  0.31766550     0.08380
H803        H  0.50575443  0.18477170  0.35670809     0.05910
H804        H  0.50884370  0.12644576  0.37972979     0.05760
C805        C  0.43193769  0.13200901  0.26116827     0.02800
C806        C  0.44566530  0.14720706  0.26145244    -0.13350
C807        C  0.43989153  0.16672800  0.26407416     0.00300
C808        C  0.42008438  0.17054248  0.26730718    -0.11880
C809        C  0.40672226  0.15532613  0.27031455     0.02790
C810        C  0.41253195  0.13591262  0.26677383    -0.11300
H811        H  0.46091213  0.14361064  0.25925117     0.08380
H812        H  0.41480247  0.18541388  0.26757234     0.05910
H813        H  0.40207582  0.12409153  0.26808868     0.05760
C814        C  0.60162452  0.34420198  0.27206383     0.02800
C815        C  0.58798800  0.32910994  0.27053178    -0.13350
C816        C  0.59386295  0.30970383  0.26795564     0.00300
C817        C  0.61387730  0.30567344  0.26625287    -0.11880
C818        C  0.62772810  0.32089090  0.26610236     0.02790
C819        C  0.62156967  0.34026919  0.26922534    -0.11300
H820        H  0.57257557  0.33264541  0.27154109     0.08380
H821        H  0.61882523  0.29070177  0.26508657     0.05910
H822        H  0.63211647  0.35208582  0.26942352     0.05760
C823        C  0.62221231  0.23082909  0.34993511     0.02800
C824        C  0.60740203  0.23302470  0.33607612    -0.13350
C825        C  0.58763147  0.23211290  0.34132073     0.00300
C826        C  0.58306286  0.23209693  0.36144431    -0.11880
C827        C  0.59794420  0.23269297  0.37568747     0.02790
C828        C  0.61758332  0.23099103  0.36989380    -0.11300
H829        H  0.61157936  0.23529564  0.32101866     0.08380
H830        H  0.56801927  0.23196757  0.36629644     0.05910
H831        H  0.62911406  0.23044258  0.38072792     0.05760
C832        C  0.51448467  0.34778427  0.17826523     0.02800
C833        C  0.51357599  0.34147195  0.15880020    -0.13350
C834        C  0.51348555  0.32143065  0.15446921     0.00300
C835        C  0.51422855  0.30774853  0.16978918    -0.11880
C836        C  0.51569765  0.31388944  0.18934879     0.02790
C837        C  0.51553192  0.33399056  0.19341594    -0.11300
H838        H  0.51319531  0.35209560  0.14707686     0.08380
H839        H  0.51396649  0.29228496  0.16640267     0.05910
H840        H  0.51655945  0.33899572  0.20841549     0.05760
O841        O  0.50317542  0.28455482  0.51677078    -0.88680
C842        C  0.54897224  0.24642525  0.50831055     0.87350
Mg843      Mg  0.47895799  0.27917271  0.53615309     1.58150
O844        O  0.51558247  0.24973742  0.46959821    -0.88410
O845        O  0.50912554  0.29256460  0.48643178    -0.75740
C846        C  0.44730960  0.19197715  0.51040324     0.92400
O847        O  0.52158979  0.25358615  0.54755049    -0.75550
O848        O  0.45056986  0.20308572  0.52491085    -0.83060
Mg849      Mg  0.53208798  0.27900599  0.52858490     1.57960
C850        C  0.49604338  0.19932394  0.44273922     0.92320
O851        O  0.54574424  0.30436485  0.51325778    -0.81320
H852        H  0.50298167  0.26483914  0.44803959    -0.06660
C853        C  0.50540539  0.20411755  0.50727259     0.87260
O854        O  0.45978603  0.26896795  0.51026000    -0.75830
O855        O  0.53878417  0.26073243  0.50437022    -0.88590
O856        O  0.51137225  0.20757226  0.44903756    -0.81400
C857        C  0.56293386  0.24175836  0.45104562     0.92440
C858        C  0.55442123  0.31029452  0.49804006     0.92290
Mg859      Mg  0.47363586  0.21931307  0.47930518     1.57950
O860        O  0.45697914  0.19371612  0.49453061    -0.81330
O861        O  0.48530361  0.24472869  0.46077990    -0.75570
O862        O  0.56054762  0.25805220  0.45988985    -0.81410
O863        O  0.52600277  0.29928572  0.55332864    -0.83120
O864        O  0.44502598  0.24335249  0.54499357    -0.81440
C865        C  0.50155245  0.25346829  0.45890212     0.86730
O866        O  0.46792526  0.23883526  0.50358554    -0.88580
O867        O  0.50218161  0.21423598  0.49270355    -0.88690
O868        O  0.49660513  0.20711605  0.52330325    -0.75740
Mg869      Mg  0.53482546  0.27376683  0.47564380     1.57970
O870        O  0.55205653  0.22707573  0.45437951    -0.83120
H871        H  0.48845463  0.30572907  0.50311760    -0.06840
O872        O  0.49074699  0.25022326  0.54018044    -0.88390
H873        H  0.50352014  0.23436312  0.56107887    -0.06670
H874        H  0.44692870  0.25282778  0.48888096    -0.06840
C875        C  0.50501339  0.24575749  0.55025462     0.86710
C876        C  0.49986138  0.29484124  0.50233767     0.87290
C877        C  0.45771396  0.25334942  0.50041954     0.87340
H878        H  0.51650192  0.19291628  0.50654664    -0.06820
O879        O  0.54613934  0.23007590  0.50012580    -0.75850
Mg880      Mg  0.47133525  0.22698000  0.53255286     1.58000
H881        H  0.55995168  0.24765069  0.51960762    -0.06840
C882        C  0.51149377  0.30285296  0.56425859     0.92330
O883        O  0.45366204  0.27233291  0.55708000    -0.83080
C884        C  0.44235987  0.25752596  0.55674921     0.92390
O885        O  0.55482309  0.30004990  0.48246643    -0.83060
Mg886      Mg  0.52690997  0.22063434  0.47458738     1.58180
O887        O  0.49504636  0.29430224  0.56196277    -0.81400
O888        O  0.48027020  0.19928750  0.45272399    -0.83090
C889        C  0.24516722  0.24679923  0.52125918     0.01950
C890        C  0.26010335  0.24589701  0.53576540     0.01950
C891        C  0.27436667  0.23068243  0.53514755     0.01950
C892        C  0.27371417  0.21625291  0.52025221     0.01950
C893        C  0.25912609  0.21739316  0.50565661     0.01950
C894        C  0.24487099  0.23246658  0.50611892     0.01950
C895        C  0.18106152  0.34670193  0.50926807     0.02800
C896        C  0.16153968  0.34271163  0.51403403    -0.13350
C897        C  0.15612762  0.32401413  0.52023059     0.00300
C898        C  0.17055107  0.30971116  0.52286045    -0.11880
C899        C  0.19015864  0.31287810  0.51704440     0.02790
C900        C  0.19486581  0.33145827  0.50942415    -0.11300
H901        H  0.15063619  0.35413327  0.51301009     0.08380
H902        H  0.16599700  0.29594438  0.52908698     0.05910
H903        H  0.20923151  0.33442150  0.50369987     0.05760
C904        C  0.15821123  0.23804621  0.43069706     0.02800
C905        C  0.17215670  0.23920408  0.44554252    -0.13350
C906        C  0.19163443  0.24382600  0.44147188     0.00300
C907        C  0.19694644  0.24857522  0.42236201    -0.11880
C908        C  0.18290084  0.24898713  0.40740427     0.02790
C909        C  0.16336988  0.24366213  0.41159725    -0.11300
H910        H  0.16791990  0.23562741  0.46039294     0.08380
H911        H  0.21218148  0.25119129  0.41889992     0.05910
H912        H  0.15250597  0.24339748  0.40008880     0.05760
C913        C  0.35097808  0.22398753  0.62068728     0.02800
C914        C  0.36826161  0.23479855  0.61781521    -0.13350
C915        C  0.37243590  0.24242258  0.59909938     0.00300
C916        C  0.35827829  0.24101158  0.58432528    -0.11880
C917        C  0.34168492  0.22926876  0.58684191     0.02790
C918        C  0.33962401  0.21902257  0.60442838    -0.11300
H919        H  0.37793399  0.23780780  0.62998087     0.08380
H920        H  0.36042130  0.24904116  0.57091836     0.05910
H921        H  0.32697502  0.20973379  0.60666879     0.05760
C922        C  0.26373958  0.12974556  0.43064275     0.02800
C923        C  0.26247275  0.13451492  0.41080091    -0.13350
C924        C  0.26134596  0.15421047  0.40519810     0.00300
C925        C  0.26080968  0.16900492  0.41955010    -0.11880
C926        C  0.26336198  0.16440115  0.43938598     0.02790
C927        C  0.26578055  0.14473425  0.44438106    -0.11300
H928        H  0.26200317  0.12307219  0.39986268     0.08380
H929        H  0.25816509  0.18391137  0.41510106     0.05910
H930        H  0.26824906  0.14082611  0.45948795     0.05760
C931        C  0.34904606  0.12657557  0.51404518     0.02800
C932        C  0.36844273  0.13314153  0.51282541    -0.13350
C933        C  0.37248220  0.15324779  0.51216409     0.00300
C934        C  0.35695623  0.16670614  0.51199963    -0.11880
C935        C  0.33747827  0.16028789  0.51278759     0.02790
C936        C  0.33367593  0.14016373  0.51386656    -0.11300
H937        H  0.38033740  0.12271548  0.51329039     0.08380
H938        H  0.36010048  0.18223213  0.51191039     0.05910
H939        H  0.31870988  0.13503486  0.51489316     0.05760
C940        C  0.27628844  0.34377485  0.59693032     0.02800
C941        C  0.27508981  0.34059604  0.61724259    -0.13350
C942        C  0.27242711  0.32147753  0.62442877     0.00300
C943        C  0.27088661  0.30581290  0.61122420    -0.11880
C944        C  0.27224272  0.30894517  0.59106347     0.02790
C945        C  0.27492276  0.32790323  0.58407445    -0.11300
H946        H  0.27594602  0.35281831  0.62727265     0.08380
H947        H  0.26854193  0.29112692  0.61668561     0.05910
H948        H  0.27537998  0.33043908  0.56843833     0.05760
O949        O  0.27900166  0.25931757  0.23981796    -0.88680
C950        C  0.32265709  0.25121883  0.27937395     0.87350
Mg951      Mg  0.25523620  0.27860646  0.24578519     1.58150
O952        O  0.28750689  0.21312308  0.27757049    -0.88410
O953        O  0.28249933  0.22833959  0.23350150    -0.75740
C954        C  0.22436279  0.25950588  0.33547170     0.92400
O955        O  0.29717150  0.29142236  0.26896443    -0.75550
O956        O  0.22574975  0.27454265  0.32458031    -0.83060
Mg957      Mg  0.30803433  0.27131450  0.24422894     1.57960
C958        C  0.26631311  0.19113220  0.33070340     0.92320
O959        O  0.32427504  0.25410162  0.21943382    -0.81320
H960        H  0.27381101  0.19206111  0.26264311    -0.06660
C961        C  0.28003422  0.25254422  0.32140686     0.87260
O962        O  0.23525928  0.25391916  0.25597972    -0.75830
O963        O  0.31274446  0.24763928  0.26470610    -0.88590
O964        O  0.28261301  0.19277603  0.32181920    -0.81400
C965        C  0.33548079  0.19477104  0.28589431     0.92440
C966        C  0.33282965  0.23749747  0.21849489     0.92290
Mg967      Mg  0.24687378  0.22705781  0.30643215     1.57950
O968        O  0.23320186  0.24365855  0.33154616    -0.81330
O969        O  0.25653451  0.20682827  0.28165497    -0.75570
O970        O  0.33178418  0.20396533  0.27021235    -0.81410
O971        O  0.30186292  0.29660448  0.22263673    -0.83120
O972        O  0.22162729  0.29502916  0.28220729    -0.81440
C973        C  0.27286044  0.20334516  0.27366265     0.86730
O974        O  0.24137917  0.25066793  0.28709223    -0.88580
O975        O  0.27614658  0.23801370  0.31142674    -0.88690
O976        O  0.27161223  0.26879302  0.31854052    -0.75740
Mg977      Mg  0.30698008  0.21837838  0.25384144     1.57970
O978        O  0.32476433  0.19627710  0.30102833    -0.83120
H979        H  0.26398846  0.24599122  0.21859046    -0.06840
O980        O  0.26665664  0.28395342  0.27478026    -0.88390
H981        H  0.28041072  0.30548849  0.28899289    -0.06670
H982        H  0.22034444  0.23544859  0.27369092    -0.06840
C983        C  0.28119360  0.29417711  0.27798207     0.86710
C984        C  0.27489345  0.24480383  0.22995618     0.87290
C985        C  0.23163964  0.24644265  0.27250994     0.87340
H986        H  0.29123739  0.25153052  0.33250306    -0.06820
O987        O  0.31965832  0.24252666  0.29549243    -0.75850
Mg988      Mg  0.24670065  0.27963835  0.29882045     1.58000
H989        H  0.33388195  0.26232579  0.27858561    -0.06840
C990        C  0.28667337  0.30742038  0.22191913     0.92330
O991        O  0.23079661  0.29953264  0.25145965    -0.83080
C992        C  0.21958645  0.30343478  0.26572525     0.92390
O993        O  0.32813393  0.22364852  0.22979639    -0.83060
Mg994      Mg  0.29963562  0.21774699  0.30649440     1.58180
O995        O  0.27142083  0.30367602  0.23182792    -0.81400
O996        O  0.25227281  0.20273766  0.32729647    -0.83090
O997        O  0.26481332  0.97470950  0.96737790    -0.88680
C998        C  0.27412594  0.01973654  0.00545146     0.87350
Mg999      Mg  0.24396101  0.95161273  0.97308205     1.58150
O1000       O  0.31226506  0.98542343  0.00157953    -0.88410
O1001       O  0.29495306  0.98071383  0.95856205    -0.75740
C1002       C  0.26750951  0.91936083  0.05957816     0.92400
O1003       O  0.23390581  0.99534662  0.99637767    -0.75550
O1004       O  0.25281637  0.92421148  0.04939868    -0.83060
Mg1005     Mg  0.25401221  0.00397336  0.97091183     1.57960
C1006       C  0.33711295  0.96410215  0.05401166     0.92320
O1007       O  0.27097239  0.01484557  0.94442253    -0.81320
H1008       H  0.33238551  0.97110849  0.98598710    -0.06660
C1009       C  0.27463885  0.97711570  0.04793500     0.87260
O1010       O  0.26855549  0.93108544  0.98306220    -0.75830
O1011       O  0.27775868  0.01017995  0.99059267    -0.88590
O1012       O  0.33346929  0.97983605  0.04477710    -0.81400
C1013       C  0.33196201  0.03236242  0.01074789     0.92440
C1014       C  0.28404497  0.02790160  0.94255829     0.92290
Mg1015     Mg  0.29991860  0.94372023  0.03226205     1.57950
O1016       O  0.28402583  0.92791770  0.05784160    -0.81330
O1017       O  0.31883884  0.95455886  0.00654873    -0.75570
O1018       O  0.32227900  0.03104236  0.99484946    -0.81410
O1019       O  0.22986647  0.99751620  0.94956742    -0.83120
O1020       O  0.23049892  0.92045663  0.01004270    -0.81440
C1021       C  0.32170443  0.97057198  0.99761504     0.86730
O1022       O  0.27512880  0.93920664  0.01319798    -0.88580
O1023       O  0.28862917  0.97281838  0.03743864    -0.88690
O1024       O  0.25789427  0.96973861  0.04514390    -0.75740
Mg1025     Mg  0.30634984  0.00598519  0.97811957     1.57970
O1026       O  0.32896668  0.02062732  0.02479509    -0.83120
H1027       H  0.27794620  0.95985225  0.94589782    -0.06840
O1028       O  0.24053269  0.96460028  0.00178592    -0.88390
H1029       H  0.21982298  0.97887773  0.01664376    -0.06670
H1030       H  0.28857049  0.91701176  0.99979593    -0.06840
C1031       C  0.23082586  0.97939279  0.00532367     0.86710
C1032       C  0.27903332  0.97123531  0.95681128     0.87290
C1033       C  0.27779653  0.92851690  0.99891848     0.87340
H1034       H  0.27651734  0.98803810  0.05920366    -0.06820
O1035       O  0.28278984  0.01636312  0.02148750    -0.75850
Mg1036     Mg  0.24648173  0.94529159  0.02550125     1.58000
H1037       H  0.26290913  0.03082833  0.00493094    -0.06840
C1038       C  0.21806445  0.98331055  0.94789017     0.92330
O1039       O  0.22181522  0.92711077  0.97953802    -0.83080
C1040       C  0.22044194  0.91666226  0.99485340     0.92390
O1041       O  0.29886627  0.02841419  0.95386290    -0.83060
Mg1042     Mg  0.30799073  0.99637554  0.03101736     1.58180
O1043       O  0.21857539  0.96864555  0.95929177    -0.81400
O1044       O  0.32612462  0.94909852  0.05267326    -0.83090
O1045       O  0.76224377  0.52015335  0.49975374    -0.88680
C1046       C  0.75880567  0.53453774  0.55768892     0.87350
Mg1047     Mg  0.73620544  0.51418306  0.48264097     1.58150
O1048       O  0.77801930  0.48830918  0.54677864    -0.88410
O1049       O  0.79126034  0.50958470  0.50788833    -0.75740
C1050       C  0.69021626  0.44685874  0.53344583     0.92400
O1051       O  0.72837826  0.54326530  0.52285087    -0.75550
O1052       O  0.68776537  0.46160934  0.52256069    -0.83060
Mg1053     Mg  0.76137764  0.54638489  0.51686544     1.57960
C1054       C  0.75821783  0.44037213  0.57972015     0.92320
O1055       O  0.79360664  0.55286962  0.51057913    -0.81320
H1056       H  0.79827377  0.47107245  0.53473363    -0.06660
C1057       C  0.71913979  0.48865879  0.56126001     0.87260
O1058       O  0.74179697  0.48099235  0.48576857    -0.75830
O1059       O  0.76836168  0.53048828  0.54292748    -0.88590
O1060       O  0.76613065  0.45715415  0.58065506    -0.81400
C1061       C  0.80077045  0.50598485  0.58920647     0.92440
C1062       C  0.80855637  0.55506030  0.52136765     0.92290
Mg1063     Mg  0.73793263  0.45435297  0.53950189     1.57950
O1064       O  0.70599111  0.44386407  0.54282731    -0.81330
O1065       O  0.77086176  0.45965616  0.53463168    -0.75570
O1066       O  0.80512124  0.51648352  0.57436900    -0.81410
O1067       O  0.75465407  0.56336404  0.48970064    -0.83120
O1068       O  0.69829786  0.48282489  0.48352149    -0.81440
C1069       C  0.78310842  0.47301235  0.53870144     0.86730
O1070       O  0.73104296  0.47220267  0.51452157    -0.88580
O1071       O  0.73458941  0.48080867  0.55623565    -0.88690
O1072       O  0.70659575  0.49410453  0.54877846    -0.75740
Mg1073     Mg  0.79534068  0.51432376  0.54128476     1.57970
O1074       O  0.78535203  0.49598866  0.58948423    -0.83120
H1075       H  0.78061043  0.50864653  0.48014880    -0.06840
O1076       O  0.72037801  0.51525431  0.50965288    -0.88390
H1077       H  0.70062733  0.53266520  0.52234096    -0.06670
H1078       H  0.74292049  0.45310278  0.49586879    -0.06840
C1079       C  0.71572299  0.53044729  0.51824773     0.86710
C1080       C  0.77800915  0.51265904  0.49520496     0.87290
C1081       C  0.73868397  0.46804515  0.49871244     0.87340
H1082       H  0.71666482  0.49173874  0.57655759    -0.06820
O1083       O  0.75312659  0.52141467  0.56946478    -0.75850
Mg1084     Mg  0.70440862  0.48886537  0.51588766     1.58000
H1085       H  0.75445149  0.54951395  0.56016875    -0.06840
C1086       C  0.74248093  0.56167319  0.47583244     0.92330
O1087       O  0.70759425  0.50853217  0.46646688    -0.83080
C1088       C  0.69532683  0.49497704  0.46984466     0.92390
O1089       O  0.81206420  0.54306630  0.53521114    -0.83060
Mg1090     Mg  0.75965997  0.48877170  0.57245274     1.58180
O1091       O  0.73155690  0.54670837  0.47407852    -0.81400
O1092       O  0.74548179  0.43629405  0.56675073    -0.83090
O1093       O  0.55774553  0.48351909  0.73498061    -0.88680
C1094       C  0.50061418  0.46869721  0.73946353     0.87350
Mg1095     Mg  0.57372883  0.48983585  0.76117321     1.58150
O1096       O  0.50967718  0.51662087  0.72202686    -0.88410
O1097       O  0.54930924  0.49724266  0.70750301    -0.75740
C1098       C  0.52216222  0.55409713  0.81161990     0.92400
O1099       O  0.53722973  0.45951925  0.76953897    -0.75550
O1100       O  0.53449694  0.54056643  0.81478368    -0.83060
Mg1101     Mg  0.54212497  0.45638064  0.73611194     1.57960
C1102       C  0.47617478  0.56200074  0.74546683     0.92320
O1103       O  0.54537162  0.44827299  0.70321689    -0.81320
H1104       H  0.52148867  0.53454500  0.70221458    -0.06660
C1105       C  0.49568240  0.51312584  0.77972800     0.87260
O1106       O  0.57104372  0.52287286  0.75596266    -0.75830
O1107       O  0.51581985  0.47319997  0.73082084    -0.88590
O1108       O  0.47404416  0.54670945  0.73506683    -0.81400
C1109       C  0.46849504  0.49531479  0.69811273     0.92440
C1110       C  0.53430125  0.45075358  0.68842527     0.92290
Mg1111     Mg  0.51772498  0.54754757  0.76312811     1.57950
O1112       O  0.51350020  0.55570933  0.79524598    -0.81330
O1113       O  0.52279124  0.54457926  0.73010288    -0.75570
O1114       O  0.48429798  0.48555570  0.69771525    -0.81410
O1115       O  0.57122701  0.44018690  0.74119920    -0.83120
O1116       O  0.57346232  0.51795992  0.80537901    -0.81440
C1117       C  0.51787936  0.53200674  0.71738135     0.86730
O1118       O  0.54343992  0.53118402  0.76982308    -0.88580
O1119       O  0.50051289  0.52111301  0.76432354    -0.88690
O1120       O  0.50824149  0.50875456  0.79262077    -0.75740
Mg1121     Mg  0.51632492  0.49129444  0.70502618     1.57970
O1122       O  0.46538808  0.50793412  0.71138181    -0.83120
H1123       H  0.57727074  0.49636895  0.71742932    -0.06840
O1124       O  0.54731794  0.48868264  0.77787777    -0.88390
H1125       H  0.53624127  0.46993209  0.79736860    -0.06670
H1126       H  0.56126417  0.55081958  0.75752111    -0.06840
C1127       C  0.54012631  0.47273062  0.78231893     0.86710
C1128       C  0.56219173  0.49231884  0.71988505     0.87290
C1129       C  0.55868876  0.53568116  0.76122070     0.87340
H1130       H  0.48050981  0.50939381  0.78209269    -0.06820
O1131       O  0.48775276  0.48138677  0.74378291    -0.75850
Mg1132     Mg  0.54125577  0.51379793  0.79616647     1.58000
H1133       H  0.49831163  0.45365681  0.74368984    -0.06840
C1134       C  0.58323090  0.44359982  0.75502485     0.92330
O1135       O  0.59033242  0.49601626  0.78847039    -0.83080
C1136       C  0.58850716  0.50737126  0.80294439     0.92390
O1137       O  0.52248016  0.46492561  0.68722706    -0.83060
Mg1138     Mg  0.48324470  0.51449577  0.73882348     1.58180
O1139       O  0.57994517  0.45736838  0.76704085    -0.81400
O1140       O  0.49047455  0.56440138  0.75702831    -0.83090
O1141       O  0.52665269  0.76436644  0.53765546    -0.88680
C1142       C  0.57038651  0.72486748  0.53007513     0.87350
Mg1143     Mg  0.50286810  0.75829633  0.55684180     1.58150
O1144       O  0.53655833  0.72728872  0.49119627    -0.88410
O1145       O  0.53103724  0.77093693  0.50677770    -0.75740
C1146       C  0.47147765  0.66954950  0.53560635     0.92400
O1147       O  0.54458420  0.73490365  0.57015316    -0.75550
O1148       O  0.47299619  0.68014058  0.55086124    -0.83060
Mg1149     Mg  0.55547902  0.75975497  0.55029195     1.57960
C1150       C  0.51558507  0.67426979  0.46771971     0.92320
O1151       O  0.57111201  0.78488103  0.53387276    -0.81320
H1152       H  0.52320046  0.74257963  0.47024072    -0.06660
C1153       C  0.52817885  0.68296270  0.52971252     0.87260
O1154       O  0.48277135  0.74824647  0.53211293    -0.75830
O1155       O  0.56038294  0.73949577  0.52667903    -0.88590
O1156       O  0.53184837  0.68338632  0.46932994    -0.81400
C1157       C  0.58551055  0.71988807  0.47462536     0.92440
C1158       C  0.58025595  0.78659012  0.51771696     0.92290
Mg1159     Mg  0.49552875  0.69822090  0.50405937     1.57950
O1160       O  0.48112456  0.67299943  0.52009412    -0.81330
O1161       O  0.50568492  0.72328107  0.48437860    -0.75570
O1162       O  0.58187475  0.73427400  0.48576419    -0.81410
O1163       O  0.54964378  0.78115352  0.57546425    -0.83120
O1164       O  0.46918917  0.72147168  0.57363323    -0.81440
C1165       C  0.52206576  0.73137044  0.48129854     0.86730
O1166       O  0.48949349  0.71740204  0.52805509    -0.88580
O1167       O  0.52466552  0.69293383  0.51510879    -0.88690
O1168       O  0.51927402  0.68574448  0.54575337    -0.75740
Mg1169     Mg  0.55606376  0.75081152  0.49758877     1.57970
O1170       O  0.57401722  0.70522279  0.47380853    -0.83120
H1171       H  0.51176786  0.78543227  0.52401233    -0.06840
O1172       O  0.51428182  0.72922993  0.56194810    -0.88390
H1173       H  0.52740433  0.71486754  0.58371490    -0.06670
H1174       H  0.46820329  0.73068058  0.51316470    -0.06840
C1175       C  0.52852077  0.72592610  0.57249906     0.86710
C1176       C  0.52285178  0.77423556  0.52306160     0.87290
C1177       C  0.47949286  0.73185328  0.52415763     0.87340
H1178       H  0.53938787  0.67187150  0.52893853    -0.06820
O1179       O  0.56797793  0.70902909  0.52064356    -0.75850
Mg1180     Mg  0.49426467  0.70530923  0.55698094     1.58000
H1181       H  0.58126619  0.72547205  0.54152184    -0.06840
C1182       C  0.53428693  0.78221080  0.58591870     0.92330
O1183       O  0.47913168  0.75210248  0.57817848    -0.83080
C1184       C  0.46851096  0.73767408  0.58289595     0.92390
O1185       O  0.57714526  0.77513241  0.50348768    -0.83060
Mg1186     Mg  0.54856276  0.69844901  0.49506095     1.58180
O1187       O  0.51898499  0.77249554  0.58191745    -0.81400
O1188       O  0.50162334  0.67739506  0.47950549    -0.83090
O1189       O  0.71546214  0.72375369  0.76303655    -0.88680
C1190       C  0.75391154  0.76924831  0.75535385     0.87350
Mg1191     Mg  0.72074451  0.69923472  0.78169958     1.58150
O1192       O  0.75123516  0.73540641  0.71692351    -0.88410
O1193       O  0.70780754  0.72936015  0.73257785    -0.75740
C1194       C  0.80928855  0.66862387  0.76027713     0.92400
O1195       O  0.74540379  0.74182440  0.79492112    -0.75550
O1196       O  0.79778752  0.67216077  0.77431094    -0.83060
Mg1197     Mg  0.72041651  0.75242008  0.77550240     1.57960
C1198       C  0.80526162  0.71774938  0.69278120     0.92320
O1199       O  0.69539878  0.76662595  0.75953173    -0.81320
H1200       H  0.73724866  0.72210233  0.69494879    -0.06660
C1201       C  0.79619106  0.72695644  0.75548886     0.87260
O1202       O  0.73175020  0.68088264  0.75566259    -0.75830
O1203       O  0.73944882  0.75910640  0.75156829    -0.88590
O1204       O  0.79262331  0.73119319  0.69498037    -0.81400
C1205       C  0.75838032  0.78297846  0.69791308     0.92440
C1206       C  0.69026790  0.77539354  0.74403532     0.92290
Mg1207     Mg  0.78325783  0.69454644  0.72779308     1.57950
O1208       O  0.80841274  0.67826962  0.74430066    -0.81330
O1209       O  0.75814069  0.70553763  0.70798718    -0.75570
O1210       O  0.74293990  0.78104788  0.70816669    -0.81410
O1211       O  0.69956627  0.74556443  0.80028573    -0.83120
O1212       O  0.75722425  0.66623814  0.79426014    -0.81440
C1213       C  0.74838550  0.72121982  0.70612304     0.86730
O1214       O  0.76260019  0.68802294  0.75105809    -0.88580
O1215       O  0.78674302  0.72325586  0.74057679    -0.88690
O1216       O  0.79292574  0.71807876  0.77142092    -0.75740
Mg1217     Mg  0.72706552  0.75489472  0.72255304     1.57970
O1218       O  0.77306956  0.77184888  0.70022061    -0.83120
H1219       H  0.69417417  0.70910079  0.74937697    -0.06840
O1220       O  0.74950487  0.71123818  0.78695641    -0.88390
H1221       H  0.76451893  0.72383964  0.80862545    -0.06670
H1222       H  0.74866578  0.66793963  0.73501224    -0.06840
C1223       C  0.75342334  0.72535443  0.79748464     0.86710
C1224       C  0.70521130  0.72039264  0.74857162     0.87290
C1225       C  0.74789333  0.67840965  0.74682638     0.87340
H1226       H  0.80708479  0.73840472  0.75510927    -0.06820
O1227       O  0.77011791  0.76664115  0.74672506    -0.75850
Mg1228     Mg  0.77333875  0.69240480  0.78064866     1.58000
H1229       H  0.75290686  0.78018469  0.76671361    -0.06840
C1230       C  0.69677515  0.73051264  0.81082694     0.92330
O1231       O  0.72625323  0.67300763  0.80149399    -0.83080
C1232       C  0.74129275  0.66221186  0.80302685     0.92390
O1233       O  0.70090811  0.77507472  0.72874865    -0.83060
Mg1234     Mg  0.78002025  0.74725009  0.72123905     1.58180
O1235       O  0.70588512  0.71455832  0.80780661    -0.81400
O1236       O  0.80559688  0.70280548  0.70389660    -0.83090
O1237       O  0.02967515  0.45433983  0.76579856    -0.88680
C1238       C  0.97022218  0.44206724  0.76585723     0.87350
Mg1239     Mg  0.04737503  0.45968897  0.79152993     1.58150
O1240       O  0.98343393  0.48833007  0.74884004    -0.88410
O1241       O  0.02283423  0.46673722  0.73715521    -0.75740
C1242       C  0.99699697  0.52665702  0.83829762     0.92400
O1243       O  0.00371104  0.43311446  0.79914204    -0.75550
O1244       O  0.00856819  0.51238149  0.84023820    -0.83060
Mg1245     Mg  0.01028530  0.42945444  0.76665584     1.57960
C1246       C  0.95110254  0.53550011  0.77085239     0.92320
O1247       O  0.01652804  0.42070997  0.73528894    -0.81320
H1248       H  0.99622492  0.50628477  0.72967693    -0.06660
C1249       C  0.96833435  0.48534429  0.80708875     0.87260
O1250       O  0.04455751  0.49297897  0.78631279    -0.75830
O1251       O  0.98593300  0.44654188  0.75819145    -0.88590
O1252       O  0.95092780  0.52045689  0.75991631    -0.81400
C1253       C  0.94208340  0.47024774  0.72380317     0.92440
C1254       C  0.00929184  0.42177686  0.71821913     0.92290
Mg1255     Mg  0.99069596  0.51987036  0.79073303     1.57950
O1256       O  0.98634180  0.52878006  0.82319568    -0.81330
O1257       O  0.99609391  0.51632845  0.75761870    -0.75570
O1258       O  0.95777738  0.46060652  0.72104467    -0.81410
O1259       O  0.03522398  0.41139861  0.77466716    -0.83120
O1260       O  0.04603319  0.49001749  0.83084940    -0.81440
C1261       C  0.99195384  0.50367847  0.74465512     0.86730
O1262       O  0.01580902  0.50177941  0.79699057    -0.88580
O1263       O  0.97317347  0.49382070  0.79188833    -0.88690
O1264       O  0.98087375  0.48036022  0.81984988    -0.75740
Mg1265     Mg  0.98986255  0.46283597  0.73153339     1.57970
O1266       O  0.93961190  0.48148094  0.73838804    -0.83120
H1267       H  0.05022454  0.46583234  0.74851477    -0.06840
O1268       O  0.02038320  0.45890919  0.80791770    -0.88390
H1269       H  0.00578067  0.44251766  0.82716606    -0.06670
H1270       H  0.03463578  0.52094376  0.78546692    -0.06840
C1271       C  0.01016193  0.44464168  0.81213992     0.86710
C1272       C  0.03495481  0.46226949  0.75047756     0.87290
C1273       C  0.03168056  0.50596300  0.78950114     0.87340
H1274       H  0.95313118  0.48167020  0.80936407    -0.06820
O1275       O  0.95799169  0.45497778  0.77097218    -0.75850
Mg1276     Mg  0.01404820  0.48509673  0.82342869     1.58000
H1277       H  0.96721147  0.42688715  0.76903104    -0.06840
C1278       C  0.05056259  0.41133981  0.78482788     0.92330
O1279       O  0.06500903  0.46632095  0.81956938    -0.83080
C1280       C  0.06176322  0.48016818  0.83163561     0.92390
O1281       O  0.99712264  0.43511600  0.71366448    -0.83060
Mg1282     Mg  0.95675716  0.48790828  0.76562977     1.58180
O1283       O  0.05568000  0.42643115  0.79460618    -0.81400
O1284       O  0.96358867  0.53779993  0.78440656    -0.83090
O1285       O  0.96910774  0.73939550  0.50133379    -0.88680
C1286       C  0.00527074  0.74667271  0.54836459     0.87350
Mg1287     Mg  0.97483982  0.71903805  0.47815799     1.58150
O1288       O  0.00392235  0.78564487  0.51493608    -0.88410
O1289       O  0.96084070  0.76957307  0.50785817    -0.75740
C1290       C  0.06412750  0.74015103  0.45085723     0.92400
O1291       O  0.99649036  0.70726302  0.52252166    -0.75550
O1292       O  0.05274252  0.72581428  0.45395948    -0.83060
Mg1293     Mg  0.97127995  0.72789315  0.53037881     1.57960
C1294       C  0.05776862  0.80880994  0.49641619     0.92320
O1295       O  0.94483677  0.74572672  0.53932075    -0.81320
H1296       H  0.98948573  0.80624451  0.50013304    -0.06660
C1297       C  0.04907489  0.74623580  0.50774683     0.87260
O1298       O  0.98648823  0.74371745  0.45862481    -0.75830
O1299       O  0.99132023  0.75084858  0.53775589    -0.88590
O1300       O  0.04753831  0.80542605  0.51155284    -0.81400
C1301       C  0.01157824  0.80375010  0.56263131     0.92440
C1302       C  0.94277444  0.75743823  0.55355037     0.92290
Mg1303     Mg  0.03601335  0.77280223  0.47436369     1.57950
O1304       O  0.06193128  0.75638616  0.45977664    -0.81330
O1305       O  0.01035971  0.79229182  0.48433003    -0.75570
O1306       O  0.99561146  0.79425811  0.56051164    -0.81410
O1307       O  0.95000279  0.70397062  0.52328355    -0.83120
O1308       O  0.01235875  0.70591905  0.44736401    -0.81440
C1309       C  0.00084077  0.79527716  0.49999526     0.86730
O1310       O  0.01642209  0.74897351  0.46822436    -0.88580
O1311       O  0.03935022  0.76076907  0.50342402    -0.88690
O1312       O  0.04621323  0.72989548  0.49949605    -0.75740
Mg1313     Mg  0.97957448  0.77964001  0.53431795     1.57970
O1314       O  0.02609399  0.80105678  0.55140949    -0.83120
H1315       H  0.94873790  0.75356866  0.48590413    -0.06840
O1316       O  0.00284557  0.71409568  0.49196294    -0.88390
H1317       H  0.01667771  0.69277112  0.50632942    -0.06670
H1318       H  0.00455590  0.76346951  0.44583186    -0.06840
C1319       C  0.00567979  0.70408523  0.50671539     0.86710
C1320       C  0.95912402  0.75400805  0.49780679     0.87290
C1321       C  0.00276012  0.75244845  0.45699702     0.87340
H1322       H  0.05975954  0.74729309  0.51933904    -0.06820
O1323       O  0.02171973  0.75496873  0.54632456    -0.75850
Mg1324     Mg  0.02746134  0.71986303  0.47368195     1.58000
H1325       H  0.00358853  0.73534847  0.55923443    -0.06840
C1326       C  0.94832118  0.69239211  0.50889959     0.92330
O1327       O  0.98166072  0.69749298  0.45385536    -0.83080
C1328       C  0.99706189  0.69604293  0.44355252     0.92390
O1329       O  0.95463868  0.77162412  0.55576421    -0.83060
Mg1330     Mg  0.03268883  0.78012437  0.52707863     1.58180
O1331       O  0.95907872  0.69382998  0.49380822    -0.81400
O1332       O  0.05691176  0.79803968  0.48125237    -0.83090
C1333       C  0.74784411  0.74771966  0.51975108     0.01950
C1334       C  0.74971660  0.73320580  0.50500060     0.01950
C1335       C  0.76611916  0.72045708  0.50488304     0.01950
C1336       C  0.77982326  0.72146951  0.52038069     0.01950
C1337       C  0.77760286  0.73575315  0.53520113     0.01950
C1338       C  0.76200376  0.74925936  0.53465685     0.01950
C1339       C  0.65579877  0.82030715  0.50925062     0.02800
C1340       C  0.66944506  0.80500849  0.51048850    -0.13350
C1341       C  0.68967563  0.80890257  0.51072822     0.00300
C1342       C  0.69564346  0.82846398  0.50997074    -0.11880
C1343       C  0.68240070  0.84344491  0.50580889     0.02790
C1344       C  0.66229283  0.83944490  0.50580882    -0.11300
H1345       H  0.66403099  0.79018763  0.51149659     0.08380
H1346       H  0.71080808  0.83228183  0.51227028     0.05910
H1347       H  0.65183948  0.85108330  0.50348055     0.05760
C1348       C  0.75251229  0.63097976  0.43150409     0.02800
C1349       C  0.75459298  0.64527404  0.44600775    -0.13350
C1350       C  0.76467002  0.66280782  0.44235317     0.00300
C1351       C  0.77021040  0.66676418  0.42290233    -0.11880
C1352       C  0.76544845  0.65381271  0.40765866     0.02790
C1353       C  0.75752055  0.63542187  0.41211095    -0.11300
H1354       H  0.74874355  0.64223339  0.46034190     0.08380
H1355       H  0.77761642  0.68021577  0.41917761     0.05910
H1356       H  0.75502872  0.62480058  0.40062744     0.05760
C1357       C  0.87558038  0.65311708  0.51667236     0.02800
C1358       C  0.86966071  0.63347787  0.51612843    -0.13350
C1359       C  0.84978720  0.62872088  0.51801758     0.00300
C1360       C  0.83602881  0.64387964  0.51992068    -0.11880
C1361       C  0.84177603  0.66353080  0.52099798     0.02790
C1362       C  0.86170847  0.66799050  0.51933621    -0.11300
H1363       H  0.88037197  0.62209751  0.51368841     0.08380
H1364       H  0.82061212  0.64029962  0.52018318     0.05910
H1365       H  0.86651642  0.68307777  0.51988927     0.05760
C1366       C  0.65833674  0.72970034  0.43355149     0.02800
C1367       C  0.67307101  0.72844718  0.44767946    -0.13350
C1368       C  0.69252476  0.73225474  0.44285240     0.00300
C1369       C  0.69733821  0.73666465  0.42350003    -0.11880
C1370       C  0.68275958  0.73844673  0.40924496     0.02790
C1371       C  0.66312310  0.73475853  0.41419131    -0.11300
H1372       H  0.66919865  0.72531433  0.46272404     0.08380
H1373       H  0.71250465  0.73897388  0.41951426     0.05910
H1374       H  0.65174342  0.73619639  0.40328519     0.05760
C1375       C  0.87409792  0.74121535  0.59937916     0.02800
C1376       C  0.87022485  0.73758806  0.61929132    -0.13350
C1377       C  0.85070388  0.73544367  0.62552549     0.00300
C1378       C  0.83544882  0.73798336  0.61218793    -0.11880
C1379       C  0.83919418  0.74102385  0.59234868     0.02790
C1380       C  0.85858499  0.74216263  0.58606461    -0.11300
H1381       H  0.88212557  0.73614633  0.62961922     0.08380
H1382       H  0.82049656  0.73706308  0.61735859     0.05910
H1383       H  0.86179881  0.74340828  0.57062352     0.05760
C1384       C  0.76444576  0.82329673  0.62486104     0.02800
C1385       C  0.76575929  0.84305654  0.61954999    -0.13350
C1386       C  0.76614171  0.84828963  0.59971182     0.00300
C1387       C  0.76492161  0.83371308  0.58525815    -0.11880
C1388       C  0.76449168  0.81381026  0.59034548     0.02790
C1389       C  0.76424001  0.80885784  0.61029138    -0.11300
H1390       H  0.76624761  0.85426273  0.63073256     0.08380
H1391       H  0.76421320  0.83800411  0.57005398     0.05910
H1392       H  0.76376883  0.79364137  0.61463366     0.05760
O1393       O  0.80834508  0.76636197  0.26186944    -0.88680
C1394       C  0.75019428  0.76231769  0.24831526     0.87350
Mg1395     Mg  0.82601556  0.74125084  0.26806379     1.58150
O1396       O  0.76068663  0.77898849  0.29650986    -0.88410
O1397       O  0.79953405  0.79395644  0.27535180    -0.75740
C1398       C  0.77537639  0.68972591  0.33173830     0.92400
O1399       O  0.78738746  0.73108923  0.23887142    -0.75550
O1400       O  0.78984977  0.68694694  0.32039843    -0.83060
Mg1401     Mg  0.79142003  0.76436744  0.23544884     1.57960
C1402       C  0.72793372  0.75174950  0.34114974     0.92320
O1403       O  0.79430611  0.79683772  0.22690944    -0.81320
H1404       H  0.77314825  0.79788942  0.31506424    -0.06660
C1405       C  0.74879234  0.72081703  0.29019291     0.87260
O1406       O  0.82310026  0.74609005  0.30108549    -0.75830
O1407       O  0.76583023  0.76982511  0.25323951    -0.88590
O1408       O  0.72589806  0.76381801  0.32715310    -0.81400
C1409       C  0.71890138  0.80269876  0.27740663     0.92440
C1410       C  0.78282338  0.81132667  0.22882178     0.92290
Mg1411     Mg  0.76965973  0.73615265  0.32480813     1.57950
O1412       O  0.76358258  0.70361303  0.32835350    -0.81330
O1413       O  0.77458562  0.76953853  0.32376650    -0.75570
O1414       O  0.73353530  0.80290236  0.26591429    -0.81410
O1415       O  0.81899857  0.75891578  0.21724707    -0.83120
O1416       O  0.82826764  0.69585629  0.29450566    -0.81440
C1417       C  0.76942844  0.78286232  0.31187498     0.86730
O1418       O  0.79599697  0.73109178  0.30861873    -0.88580
O1419       O  0.75288734  0.73634487  0.29846953    -0.88690
O1420       O  0.76177989  0.70792666  0.28684084    -0.75740
Mg1421     Mg  0.76631351  0.79603982  0.27061912     1.57970
O1422       O  0.71659714  0.78936577  0.29012881    -0.83120
H1423       H  0.82768783  0.78472692  0.27388495    -0.06840
O1424       O  0.80070551  0.72235855  0.26657258    -0.88390
H1425       H  0.78850900  0.70301550  0.24836086    -0.06670
H1426       H  0.81298102  0.74363810  0.32885609    -0.06840
C1427       C  0.79222890  0.71810562  0.25120782     0.86710
C1428       C  0.81258036  0.78178123  0.27028448     0.87290
C1429       C  0.81080069  0.74014348  0.31359974     0.87340
H1430       H  0.73386279  0.71808113  0.28579014    -0.06820
O1431       O  0.73720705  0.75815341  0.26088662    -0.75850
Mg1432     Mg  0.79524320  0.70445359  0.29198309     1.58000
H1433       H  0.74755338  0.75913937  0.23306512    -0.06840
C1434       C  0.83246423  0.74642757  0.22006254     0.92330
O1435       O  0.84444926  0.71516687  0.27401576    -0.83080
C1436       C  0.84327272  0.69966136  0.28405484     0.92390
O1437       O  0.77136505  0.81319019  0.24327167    -0.83060
Mg1438     Mg  0.73445571  0.76167208  0.29434450     1.58180
O1439       O  0.83374990  0.73669803  0.23581984    -0.81400
O1440       O  0.74240723  0.74029413  0.34214777    -0.83090
O1441       O  0.73593172  0.03049451  0.00911424    -0.88680
C1442       C  0.73829707  0.97189634  0.99672667     0.87350
Mg1443     Mg  0.76187632  0.04718893  0.01432591     1.58150
O1444       O  0.72300188  0.98231393  0.04539093    -0.88410
O1445       O  0.70920744  0.02218518  0.02458686    -0.75740
C1446       C  0.81316714  0.99737821  0.07823529     0.92400
O1447       O  0.76996642  0.00774056  0.98555824    -0.75550
O1448       O  0.81518795  0.01079692  0.06563115    -0.83060
Mg1449     Mg  0.73676699  0.01267102  0.98309941     1.57960
C1450       C  0.75109397  0.94965008  0.08991832     0.92320
O1451       O  0.70408939  0.01612463  0.97519108    -0.81320
H1452       H  0.70428799  0.99480736  0.06403035    -0.06660
C1453       C  0.78071302  0.96932284  0.03821368     0.87260
O1454       O  0.75771876  0.04497547  0.04761368    -0.75830
O1455       O  0.73126405  0.98769251  0.00175314    -0.88590
O1456       O  0.73971038  0.94589528  0.07556219    -0.81400
C1457       C  0.69820441  0.94092466  0.02511365     0.92440
C1458       C  0.68947392  0.00498259  0.97814849     0.92290
Mg1459     Mg  0.76587791  0.99160143  0.07273820     1.57950
O1460       O  0.79865688  0.98577028  0.07781466    -0.81330
O1461       O  0.73276919  0.99681288  0.07211697    -0.75570
O1462       O  0.69753264  0.95714160  0.01605928    -0.81410
O1463       O  0.74278290  0.03951404  0.96406422    -0.83120
O1464       O  0.80533437  0.04795096  0.04174569    -0.81440
C1465       C  0.71929117  0.99117343  0.06067787     0.86730
O1466       O  0.77105898  0.01712715  0.05548493    -0.88580
O1467       O  0.76547095  0.97368852  0.04684818    -0.88690
O1468       O  0.79343187  0.98217590  0.03383604    -0.75740
Mg1469     Mg  0.70575717  0.98910134  0.02008027     1.57970
O1470       O  0.71169700  0.93737341  0.03750007    -0.83120
H1471       H  0.71879615  0.05015835  0.02225222    -0.06840
O1472       O  0.77910052  0.02095130  0.01311702    -0.88390
H1473       H  0.79815063  0.00844432  0.99485276    -0.06670
H1474       H  0.75966723  0.03510413  0.07552370    -0.06840
C1475       C  0.78313968  0.01238643  0.99777469     0.86710
C1476       C  0.72119173  0.03499655  0.01852183     0.87290
C1477       C  0.76288897  0.03247537  0.06028113     0.87340
H1478       H  0.78324035  0.95426409  0.03418310    -0.06820
O1479       O  0.74253863  0.95888480  0.00921319    -0.75850
Mg1480     Mg  0.79708657  0.01555191  0.03827779     1.58000
H1481       H  0.74108162  0.96916334  0.98141990    -0.06840
C1482       C  0.75561127  0.05280977  0.96640661     0.92330
O1483       O  0.78920243  0.06456145  0.01893147    -0.83080
C1484       C  0.80343924  0.06269289  0.03063369     0.92390
O1485       O  0.68792314  0.99441806  0.99327588    -0.83060
Mg1486     Mg  0.73982639  0.95551565  0.04262779     1.58180
O1487       O  0.76570026  0.05399764  0.98197874    -0.81400
O1488       O  0.76092646  0.96527038  0.09056151    -0.83090
O1489       O  0.77572882  0.46366534  0.03579744    -0.88680
C1490       C  0.81979888  0.47114471  0.99772331     0.87350
Mg1491     Mg  0.75212741  0.44453867  0.02897287     1.58150
O1492       O  0.78679731  0.51095057  0.00151517    -0.88410
O1493       O  0.78103133  0.49368649  0.04488651    -0.75740
C1494       C  0.72080007  0.46992888  0.94176094     0.92400
O1495       O  0.79304815  0.43223465  0.00586942    -0.75550
O1496       O  0.72159317  0.45432769  0.95186138    -0.83060
Mg1497     Mg  0.80388478  0.45070451  0.03212838     1.57960
C1498       C  0.76652805  0.53640049  0.94919673     0.92320
O1499       O  0.81874720  0.46615474  0.05816850    -0.81320
H1500       H  0.77395319  0.53170625  0.01752838    -0.06660
C1501       C  0.77665171  0.47452884  0.95522400     0.87260
O1502       O  0.73218914  0.47022303  0.02123170    -0.75830
O1503       O  0.81042644  0.47471915  0.01273135    -0.88590
O1504       O  0.78290798  0.53352625  0.95772563    -0.81400
C1505       C  0.83639572  0.52601980  0.99322617     0.92440
C1506       C  0.82968340  0.48117077  0.05975989     0.92290
Mg1507     Mg  0.74506891  0.50019023  0.97214847     1.57950
O1508       O  0.73027913  0.48526995  0.94639079    -0.81330
O1509       O  0.75604527  0.51861336  0.99783921    -0.75570
O1510       O  0.83104117  0.51723991  0.00862081    -0.81410
O1511       O  0.79550318  0.42611633  0.05363698    -0.83120
O1512       O  0.71754127  0.43074523  0.99268624    -0.81440
C1513       C  0.77253455  0.52104569  0.00594818     0.86730
O1514       O  0.73838340  0.47562663  0.99035869    -0.88580
O1515       O  0.77375922  0.48828995  0.96650197    -0.88690
O1516       O  0.76745705  0.45853224  0.95696825    -0.75740
Mg1517     Mg  0.80610846  0.50363146  0.02503171     1.57970
O1518       O  0.82555532  0.52632594  0.97806992    -0.83120
H1519       H  0.76110253  0.47596388  0.05789695    -0.06840
O1520       O  0.76306158  0.44143950  0.99973478    -0.88390
H1521       H  0.77636449  0.42053998  0.98422045    -0.06670
H1522       H  0.71774926  0.49030240  0.00491871    -0.06840
C1523       C  0.77729483  0.43095963  0.99607000     0.86710
C1524       C  0.77223513  0.47750150  0.04679701     0.87290
C1525       C  0.72878805  0.47902731  0.00527763     0.87340
H1526       H  0.78756739  0.47598630  0.94389573    -0.06820
O1527       O  0.81698483  0.48056913  0.98198899    -0.75850
Mg1528     Mg  0.74271168  0.44720828  0.97663586     1.58000
H1529       H  0.83032329  0.45937836  0.99785208    -0.06840
C1530       C  0.78089585  0.41478709  0.05155785     0.92330
O1531       O  0.72770190  0.42423954  0.02280931    -0.83080
C1532       C  0.71603066  0.42139550  0.00876116     0.92390
O1533       O  0.82755977  0.49611562  0.04896792    -0.83060
Mg1534     Mg  0.79852485  0.50695441  0.97215473     1.58180
O1535       O  0.76888379  0.41751107  0.03773822    -0.81400
O1536       O  0.75185019  0.52540923  0.95220302    -0.83090
C1537       C  0.77703659  0.21844697  0.01658684     0.01950
C1538       C  0.77638861  0.23242946  0.03182520     0.01950
C1539       C  0.76163568  0.24683762  0.03187083     0.01950
C1540       C  0.74747548  0.24730142  0.01690957     0.01950
C1541       C  0.74802805  0.23329830  0.00171133     0.01950
C1542       C  0.76278329  0.21876218  0.00151266     0.01950
C1543       C  0.65435149  0.24098515  0.93116997     0.02800
C1544       C  0.66831440  0.23893369  0.94611301    -0.13350
C1545       C  0.68837159  0.23994452  0.94201034     0.00300
C1546       C  0.69425389  0.24422206  0.92290831    -0.11880
C1547       C  0.68060096  0.24803107  0.90820113     0.02790
C1548       C  0.66054360  0.24573699  0.91211891    -0.11300
H1549       H  0.66341630  0.23653586  0.96096170     0.08380
H1550       H  0.70968551  0.24475535  0.91934475     0.05910
H1551       H  0.64993108  0.24758950  0.90052480     0.05760
C1552       C  0.76338330  0.12642010  0.92867121     0.02800
C1553       C  0.76494647  0.13263959  0.90919838    -0.13350
C1554       C  0.76597649  0.15268063  0.90494711     0.00300
C1555       C  0.76427547  0.16638953  0.92013210    -0.11880
C1556       C  0.76272172  0.16037964  0.93967923     0.02790
C1557       C  0.76273080  0.14028917  0.94380237    -0.11300
H1558       H  0.76598997  0.12197682  0.89753384     0.08380
H1559       H  0.76454446  0.18183767  0.91666613     0.05910
H1560       H  0.76242466  0.13533434  0.95882851     0.05760
C1561       C  0.85102090  0.12934007  0.02118160     0.02800
C1562       C  0.87086555  0.13421368  0.02060728    -0.13350
C1563       C  0.87632784  0.15378205  0.01785073     0.00300
C1564       C  0.86187367  0.16843409  0.01739466    -0.11880
C1565       C  0.84185843  0.16347314  0.01662648     0.02790
C1566       C  0.83696628  0.14357220  0.01743090    -0.11300
H1567       H  0.88187880  0.12297310  0.02221505     0.08380
H1568       H  0.86650440  0.18350327  0.01778582     0.05910
H1569       H  0.82194109  0.13882636  0.01594609     0.05760
C1570       C  0.87094262  0.24472166  0.09929868     0.02800
C1571       C  0.85602470  0.24344282  0.08542989    -0.13350
C1572       C  0.83651004  0.24134883  0.09105419     0.00300
C1573       C  0.83226986  0.23916735  0.11105753    -0.11880
C1574       C  0.84734860  0.23883019  0.12506470     0.02790
C1575       C  0.86672031  0.24226094  0.11919083    -0.11300
H1576       H  0.85986917  0.24355381  0.07007775     0.08380
H1577       H  0.81729500  0.23712465  0.11578779     0.05910
H1578       H  0.87843792  0.24221174  0.12984133     0.05760
C1579       C  0.65736345  0.32112768  0.02230526     0.02800
C1580       C  0.66243099  0.34087534  0.02159364    -0.13350
C1581       C  0.68209933  0.34616143  0.01955779     0.00300
C1582       C  0.69667877  0.33163884  0.01978675    -0.11880
C1583       C  0.69165787  0.31163507  0.01913181     0.02790
C1584       C  0.67168842  0.30681868  0.01985871    -0.11300
H1585       H  0.65117173  0.35197927  0.02215317     0.08380
H1586       H  0.71176748  0.33620372  0.02043986     0.05910
H1587       H  0.66690753  0.29179157  0.01862190     0.05760
C1588       C  0.76380259  0.34526995  0.09530886     0.02800
C1589       C  0.76330246  0.33015692  0.08147801    -0.13350
C1590       C  0.76277579  0.31060819  0.08731340     0.00300
C1591       C  0.76123230  0.30638127  0.10724261    -0.11880
C1592       C  0.76010901  0.32129293  0.12116991     0.02790
C1593       C  0.76204261  0.34089216  0.11533089    -0.11300
H1594       H  0.76345292  0.33377253  0.06608157     0.08380
H1595       H  0.76087188  0.29131697  0.11211611     0.05910
H1596       H  0.76209324  0.35248621  0.12611171     0.05760
O1597       O  0.72396519  0.24292105  0.23486673    -0.88680
C1598       C  0.78248330  0.25345412  0.23964759     0.87350
Mg1599     Mg  0.70672450  0.23795934  0.26085123     1.58150
O1600       O  0.77043147  0.20629575  0.22170285    -0.88410
O1601       O  0.73225087  0.22868822  0.20745711    -0.75740
C1602       C  0.75478227  0.17032712  0.31096875     0.92400
O1603       O  0.74608648  0.26500535  0.26984369    -0.75550
O1604       O  0.74250805  0.18387596  0.31452513    -0.83060
Mg1605     Mg  0.74205296  0.26859616  0.23645172     1.57960
C1606       C  0.79977957  0.15835230  0.24631607     0.92320
O1607       O  0.73991332  0.27764058  0.20371116    -0.81320
H1608       H  0.75693643  0.18965861  0.20180522    -0.06660
C1609       C  0.78300199  0.20954299  0.27975624     0.87260
O1610       O  0.70709070  0.20476910  0.25576688    -0.75830
O1611       O  0.76690081  0.24977104  0.23132608    -0.88590
O1612       O  0.80427979  0.17362640  0.23668252    -0.81400
C1613       C  0.81330481  0.22507329  0.19935279     0.92440
C1614       C  0.75114004  0.27473090  0.18912720     0.92290
Mg1615     Mg  0.75877243  0.17683795  0.26263718     1.57950
O1616       O  0.76316849  0.16884655  0.29446938    -0.81330
O1617       O  0.75398052  0.18012850  0.22970648    -0.75570
O1618       O  0.79844155  0.23621468  0.19890631    -0.81410
O1619       O  0.71477260  0.28710068  0.24136622    -0.83120
O1620       O  0.70426511  0.21003746  0.30478301    -0.81440
C1621       C  0.76061844  0.19187434  0.21701175     0.86730
O1622       O  0.73422131  0.19489933  0.26943385    -0.88580
O1623       O  0.77808395  0.20177329  0.26422636    -0.88690
O1624       O  0.77047011  0.21448108  0.29251126    -0.75740
Mg1625     Mg  0.76568295  0.23238199  0.20519200     1.57970
O1626       O  0.81516632  0.21157831  0.21198196    -0.83120
H1627       H  0.70418555  0.23110151  0.21683811    -0.06840
O1628       O  0.73277029  0.23721438  0.27823625    -0.88390
H1629       H  0.74539515  0.25494520  0.29776814    -0.06670
H1630       H  0.71513067  0.17627310  0.25740645    -0.06840
C1631       C  0.74148978  0.25238887  0.28267501     0.86710
C1632       C  0.71940828  0.23432175  0.21963416     0.87290
C1633       C  0.71866819  0.19125754  0.26098007     0.87340
H1634       H  0.79829293  0.21253790  0.28239611    -0.06820
O1635       O  0.79458926  0.24002724  0.24382500    -0.75850
Mg1636     Mg  0.73712932  0.21155617  0.29609914     1.58000
H1637       H  0.78581680  0.26837998  0.24362081    -0.06840
C1638       C  0.70201985  0.28514713  0.25474075     0.92330
O1639       O  0.68893991  0.23327839  0.28792888    -0.83080
C1640       C  0.68986673  0.22161466  0.30230951     0.92390
O1641       O  0.76151523  0.25947944  0.18768818    -0.83060
Mg1642     Mg  0.79661969  0.20660171  0.23923884     1.58180
O1643       O  0.70226569  0.27075873  0.26646224    -0.81400
O1644       O  0.78426275  0.15764766  0.25644247    -0.83090
C1645       C  0.77615326  0.98286317  0.24895839     0.01950
C1646       C  0.77773591  0.99835366  0.26252975     0.01950
C1647       C  0.76412969  0.00013653  0.27807703     0.01950
C1648       C  0.74822242  0.98687177  0.27946655     0.01950
C1649       C  0.74614165  0.97165932  0.26541760     0.01950
C1650       C  0.76061606  0.96935613  0.25069256     0.01950
C1651       C  0.65294389  0.90024067  0.26758157     0.02800
C1652       C  0.66696660  0.91520397  0.26807831    -0.13350
C1653       C  0.68685396  0.91093941  0.27040066     0.00300
C1654       C  0.69268810  0.89138127  0.27193977    -0.11880
C1655       C  0.67885400  0.87616290  0.27167938     0.02790
C1656       C  0.65886728  0.88067214  0.26961729    -0.11300
H1657       H  0.66232526  0.93028170  0.26668970     0.08380
H1658       H  0.70810380  0.88793447  0.27309919     0.05910
H1659       H  0.64805687  0.86909383  0.26955581     0.05760
C1660       C  0.76014357  0.90076758  0.15694995     0.02800
C1661       C  0.76385282  0.88117478  0.16168647    -0.13350
C1662       C  0.76419921  0.87570265  0.18146718     0.00300
C1663       C  0.75872344  0.88912991  0.19591546    -0.11880
C1664       C  0.75676938  0.90904006  0.19154041     0.02790
C1665       C  0.75847233  0.91458246  0.17194350    -0.11300
H1666       H  0.76731940  0.87069105  0.15034753     0.08380
H1667       H  0.75746472  0.88392953  0.21077133     0.05910
H1668       H  0.75930058  0.92981106  0.16802642     0.05760
C1669       C  0.76890272  0.09658611  0.34637194     0.02800
C1670       C  0.76815050  0.08272762  0.33115586    -0.13350
C1671       C  0.77031486  0.06270114  0.33514310     0.00300
C1672       C  0.77402385  0.05682961  0.35435532    -0.11880
C1673       C  0.77533287  0.07049826  0.36948674     0.02790
C1674       C  0.77239044  0.09040061  0.36561789    -0.11300
H1675       H  0.76587632  0.08757333  0.31626104     0.08380
H1676       H  0.77558243  0.04142051  0.35769455     0.05910
H1677       H  0.77299706  0.10096379  0.37740520     0.05760
C1678       C  0.87011522  0.98724715  0.18035732     0.02800
C1679       C  0.86593409  0.98947376  0.16042156    -0.13350
C1680       C  0.84647745  0.99038937  0.15406001     0.00300
C1681       C  0.83116957  0.98877617  0.16767106    -0.11880
C1682       C  0.83509650  0.98695703  0.18774539     0.02790
C1683       C  0.85471144  0.98608039  0.19389379    -0.11300
H1684       H  0.87774714  0.99045949  0.14992126     0.08380
H1685       H  0.81619362  0.98880896  0.16252807     0.05910
H1686       H  0.85807761  0.98457246  0.20929390     0.05760
C1687       C  0.87041679  0.06763933  0.27073846     0.02800
C1688       C  0.86532266  0.08665498  0.26469630    -0.13350
C1689       C  0.84811774  0.08948851  0.25380124     0.00300
C1690       C  0.83734832  0.07326752  0.24758501    -0.11880
C1691       C  0.84038013  0.05491462  0.25612742     0.02790
C1692       C  0.85693438  0.05243356  0.26799404    -0.11300
H1693       H  0.87435082  0.09901935  0.26875817     0.08380
H1694       H  0.82488713  0.07574190  0.23816672     0.05910
H1695       H  0.85949791  0.03872970  0.27532411     0.05760
C1696       C  0.65788225  0.00468911  0.35146872     0.02800
C1697       C  0.67357674  0.00484802  0.33835996    -0.13350
C1698       C  0.69148653  0.99565858  0.34282572     0.00300
C1699       C  0.69370125  0.98801946  0.36179825    -0.11880
C1700       C  0.67940693  0.99115572  0.37622231     0.02790
C1701       C  0.66116195  0.99885736  0.37085565    -0.11300
H1702       H  0.67110452  0.01135493  0.32422166     0.08380
H1703       H  0.70648433  0.97970236  0.36569321     0.05910
H1704       H  0.64953259  0.99989637  0.38154468     0.05760
O1705       O  0.79928374  0.98796992  0.52747501    -0.88680
C1706       C  0.81208685  0.98330468  0.46891095     0.87350
Mg1707     Mg  0.79332009  0.96271783  0.54557126     1.58150
O1708       O  0.76545591  0.00117198  0.48050244    -0.88410
O1709       O  0.78717150  0.01616311  0.51876412    -0.75740
C1710       C  0.72799570  0.91209956  0.49619722     0.92400
O1711       O  0.82221698  0.95331523  0.50525077    -0.75550
O1712       O  0.74250400  0.91009182  0.50754813    -0.83060
Mg1713     Mg  0.82529234  0.98645326  0.50965542     1.57960
C1714       C  0.71770137  0.97817749  0.44885776     0.92320
O1715       O  0.83308200  0.01896337  0.51371395    -0.81320
H1716       H  0.74778225  0.02104102  0.49258009    -0.06660
C1717       C  0.76842603  0.94274556  0.46750289     0.87260
O1718       O  0.76013817  0.96733224  0.54237856    -0.75830
O1719       O  0.80809820  0.99232744  0.48403944    -0.88590
O1720       O  0.73328292  0.98829212  0.44777699    -0.81400
C1721       C  0.78277458  0.02419766  0.43794333     0.92440
C1722       C  0.83211374  0.03440395  0.50337758     0.92290
Mg1723     Mg  0.73359729  0.95996458  0.48932494     1.57950
O1724       O  0.72489884  0.92764088  0.48651268    -0.81330
O1725       O  0.73739040  0.99323603  0.49351532    -0.75570
O1726       O  0.79409705  0.02671706  0.45252143    -0.81410
O1727       O  0.84334002  0.98061964  0.53644376    -0.83120
O1728       O  0.76428975  0.92108535  0.54588912    -0.81440
C1729       C  0.75018844  0.00587734  0.48887826     0.86730
O1730       O  0.75155033  0.95433282  0.51450752    -0.88580
O1731       O  0.75971116  0.95792565  0.47188518    -0.88690
O1732       O  0.77396078  0.93068199  0.48043346    -0.75740
Mg1733     Mg  0.79125040  0.01883475  0.48536466     1.57970
O1734       O  0.77122478  0.00976553  0.43671532    -0.83120
H1735       H  0.78789478  0.00662880  0.54685987    -0.06840
O1736       O  0.79474106  0.94528317  0.51943667    -0.88390
H1737       H  0.81239496  0.92539873  0.50735425    -0.06670
H1738       H  0.73213652  0.96657583  0.53256710    -0.06840
C1739       C  0.80988560  0.94060785  0.51080177     0.86710
C1740       C  0.79143634  0.00362824  0.53176113     0.87290
C1741       C  0.74721567  0.96273490  0.52986969     0.87340
H1742       H  0.77200542  0.94000328  0.45236131    -0.06820
O1743       O  0.79888279  0.97807108  0.45693976    -0.75850
Mg1744     Mg  0.76910840  0.92821014  0.51351825     1.58000
H1745       H  0.82710302  0.97931936  0.46605929    -0.06840
C1746       C  0.84122352  0.96944359  0.55108616     0.92330
O1747       O  0.78749693  0.93527748  0.56375602    -0.83080
C1748       C  0.77482484  0.92186968  0.56119320     0.92390
O1749       O  0.81897025  0.03679970  0.49044616    -0.83060
Mg1750     Mg  0.76572755  0.98326734  0.45466353     1.58180
O1751       O  0.82571390  0.95960961  0.55408556    -0.81400
O1752       O  0.71512691  0.96549482  0.46217238    -0.83090
C1753       C  0.75561792  0.48658168  0.78105491     0.01950
C1754       C  0.77185583  0.49991556  0.78297041     0.01950
C1755       C  0.78561020  0.50045753  0.76735917     0.01950
C1756       C  0.78430890  0.48700470  0.75161968     0.01950
C1757       C  0.76884114  0.47348525  0.75035823     0.01950
C1758       C  0.75412234  0.47341300  0.76485636     0.01950
C1759       C  0.65821752  0.40392061  0.75754778     0.02800
C1760       C  0.67367941  0.41738488  0.75515084    -0.13350
C1761       C  0.69259111  0.41340350  0.76214799     0.00300
C1762       C  0.69566802  0.39488945  0.77041812    -0.11880
C1763       C  0.68172868  0.37976153  0.76858238     0.02790
C1764       C  0.66254375  0.38460497  0.76306704    -0.11300
H1765       H  0.67030534  0.43147295  0.74889565     0.08380
H1766       H  0.70937852  0.39158260  0.77747012     0.05910
H1767       H  0.65117339  0.37362364  0.76322046     0.05760
C1768       C  0.84968394  0.49702902  0.65681776     0.02800
C1769       C  0.86886208  0.49083793  0.66102271    -0.13350
C1770       C  0.87495141  0.48945162  0.68069074     0.00300
C1771       C  0.86203837  0.49494926  0.69564365    -0.11880
C1772       C  0.84243200  0.49893218  0.69165352     0.02790
C1773       C  0.83665899  0.50054057  0.67224087    -0.11300
H1774       H  0.87842462  0.48617191  0.64931704     0.08380
H1775       H  0.86684752  0.49416461  0.71072063     0.05910
H1776       H  0.82137810  0.50267821  0.66888331     0.05760
C1777       C  0.65854360  0.49740988  0.84578057     0.02800
C1778       C  0.66255270  0.49091458  0.86486774    -0.13350
C1779       C  0.68163970  0.48522145  0.86993616     0.00300
C1780       C  0.69638918  0.48578185  0.85580802    -0.11880
C1781       C  0.69243841  0.49168322  0.83668201     0.02790
C1782       C  0.67346558  0.49740415  0.83171521    -0.11300
H1783       H  0.65095455  0.49028742  0.87562317     0.08380
H1784       H  0.71113499  0.48157937  0.85977626     0.05910
H1785       H  0.67011400  0.50124671  0.81672314     0.05760
C1786       C  0.76942948  0.40469557  0.65413799     0.02800
C1787       C  0.76927429  0.41967512  0.66829092    -0.13350
C1788       C  0.76976424  0.41516050  0.68834820     0.00300
C1789       C  0.76978936  0.39544070  0.69390145    -0.11880
C1790       C  0.77156331  0.38051803  0.68004492     0.02790
C1791       C  0.77114698  0.38509944  0.66007344    -0.11300
H1792       H  0.76876112  0.43478609  0.66361836     0.08380
H1793       H  0.76890404  0.39156295  0.70922132     0.05910
H1794       H  0.77192970  0.37354674  0.64927027     0.05760
C1795       C  0.75660121  0.57114187  0.87488702     0.02800
C1796       C  0.74949896  0.58898779  0.86767611    -0.13350
C1797       C  0.74455134  0.59085887  0.84778796     0.00300
C1798       C  0.74571699  0.57440255  0.83558062    -0.11880
C1799       C  0.75345022  0.55659777  0.84234913     0.02790
C1800       C  0.75917608  0.55536949  0.86202163    -0.11300
H1801       H  0.74837760  0.60148247  0.87734101     0.08380
H1802       H  0.74194241  0.57595772  0.82029334     0.05910
H1803       H  0.76622673  0.54233066  0.86742812     0.05760
C1804       C  0.87771863  0.57191728  0.75813692     0.02800
C1805       C  0.87168641  0.59146980  0.75927506    -0.13350
C1806       C  0.85169763  0.59597926  0.75866675     0.00300
C1807       C  0.83799477  0.58064558  0.75770748    -0.11880
C1808       C  0.84379079  0.56108604  0.75570276     0.02790
C1809       C  0.86388409  0.55701786  0.75528576    -0.11300
H1810       H  0.88235800  0.60291284  0.76176416     0.08380
H1811       H  0.82269043  0.58405454  0.75949583     0.05910
H1812       H  0.86889885  0.54205270  0.75414738     0.05760
O1813       O  0.80867991  0.26715445  0.75896944    -0.88680
C1814       C  0.75041182  0.26110930  0.74628635     0.87350
Mg1815     Mg  0.82568009  0.24203897  0.76664008     1.58150
O1816       O  0.76043846  0.27959150  0.79359336    -0.88410
O1817       O  0.79923839  0.29455415  0.77243686    -0.75740
C1818       C  0.77470786  0.19160826  0.83159509     0.92400
O1819       O  0.78808495  0.23064108  0.73667567    -0.75550
O1820       O  0.78798640  0.18941900  0.81881894    -0.83060
Mg1821     Mg  0.79170813  0.26377730  0.73240119     1.57960
C1822       C  0.72723171  0.25663932  0.84021247     0.92320
O1823       O  0.79387054  0.29627020  0.72200633    -0.81320
H1824       H  0.77220455  0.29981992  0.81116524    -0.06660
C1825       C  0.74719935  0.22219046  0.78973405     0.87260
O1826       O  0.82168092  0.24772105  0.79954164    -0.75830
O1827       O  0.76609950  0.26903092  0.75052878    -0.88590
O1828       O  0.72532714  0.26736180  0.82512969    -0.81400
C1829       C  0.72007261  0.30411582  0.77347334     0.92440
C1830       C  0.78254571  0.31079584  0.72471275     0.92290
Mg1831     Mg  0.76828938  0.23892409  0.82460952     1.57950
O1832       O  0.76344827  0.20638621  0.83171770    -0.81330
O1833       O  0.77323287  0.27213611  0.82182297    -0.75570
O1834       O  0.73339523  0.30032124  0.76110646    -0.81410
O1835       O  0.81937960  0.25755600  0.71446974    -0.83120
O1836       O  0.82648122  0.19886601  0.79576308    -0.81440
C1837       C  0.76860682  0.28459999  0.80889543     0.86730
O1838       O  0.79436744  0.23333867  0.80793741    -0.88580
O1839       O  0.75086104  0.23762008  0.79839875    -0.88690
O1840       O  0.76054351  0.20988057  0.78573692    -0.75740
Mg1841     Mg  0.76612749  0.29557985  0.76712055     1.57970
O1842       O  0.71675525  0.29227045  0.78738822    -0.83120
H1843       H  0.82759629  0.28599956  0.77092031    -0.06840
O1844       O  0.79990262  0.22399810  0.76548019    -0.88390
H1845       H  0.78938081  0.20320112  0.74783673    -0.06670
H1846       H  0.81148207  0.24690658  0.82738319    -0.06840
C1847       C  0.79249204  0.21854242  0.74998089     0.86710
C1848       C  0.81256184  0.28271263  0.76731009     0.87290
C1849       C  0.80925516  0.24259408  0.81234361     0.87340
H1850       H  0.73234488  0.21918215  0.78525261    -0.06820
O1851       O  0.73726666  0.25809931  0.75912566    -0.75850
Mg1852     Mg  0.79383368  0.20682856  0.79122020     1.58000
H1853       H  0.74776082  0.25671104  0.73134377    -0.06840
C1854       C  0.83322012  0.24569131  0.71823066     0.92330
O1855       O  0.84340052  0.21539965  0.77344349    -0.83080
C1856       C  0.84161509  0.20115637  0.78517114     0.92390
O1857       O  0.77158003  0.31185494  0.73954205    -0.83060
Mg1858     Mg  0.73358683  0.26349129  0.79250894     1.58180
O1859       O  0.83442033  0.23717278  0.73473368    -0.81400
O1860       O  0.74114363  0.24455434  0.84211551    -0.83090
O1861       O  0.04796622  0.97104425  0.76545415    -0.88680
C1862       C  0.06227339  0.02929682  0.76354912     0.87350
Mg1863     Mg  0.04235341  0.95421882  0.73938267     1.58150
O1864       O  0.01523432  0.01747583  0.77971141    -0.88410
O1865       O  0.03560135  0.97847864  0.79386916    -0.75740
C1866       C  0.97788003  0.00466215  0.69010222     0.92400
O1867       O  0.07247682  0.99410511  0.73265816    -0.75550
O1868       O  0.99310333  0.99423247  0.68881957    -0.83060
Mg1869     Mg  0.07433285  0.98804859  0.76567508     1.57960
C1870       C  0.96950601  0.05294308  0.75746839     0.92320
O1871       O  0.08044877  0.98176644  0.79817108    -0.81320
H1872       H  0.99652975  0.00591231  0.79895995    -0.06660
C1873       C  0.01918506  0.03354104  0.72200073     0.87260
O1874       O  0.00907508  0.95815631  0.74382234    -0.75830
O1875       O  0.05788086  0.01399151  0.77210453    -0.88590
O1876       O  0.98365659  0.04999051  0.76910846    -0.81400
C1877       C  0.03253710  0.05845852  0.80576813     0.92440
C1878       C  0.08021124  0.99234618  0.81347362     0.92290
Mg1879     Mg  0.98322114  0.01240920  0.73777589     1.57950
O1880       O  0.97450049  0.01533979  0.70500697    -0.81330
O1881       O  0.98628811  0.00714120  0.77109392    -0.75570
O1882       O  0.04373749  0.04383983  0.80810094    -0.81410
O1883       O  0.09130170  0.96091654  0.75950114    -0.83120
O1884       O  0.01373178  0.95617852  0.69833845    -0.81440
C1885       C  0.99936441  0.01003367  0.78398288     0.86730
O1886       O  0.00092137  0.98671523  0.73208575    -0.88580
O1887       O  0.01011178  0.02867959  0.73681219    -0.88690
O1888       O  0.02486410  0.02096448  0.70963260    -0.75740
Mg1889     Mg  0.04031029  0.01161597  0.79807913     1.57970
O1890       O  0.02165067  0.06014944  0.79095061    -0.83120
H1891       H  0.03593084  0.95090233  0.78285496    -0.06840
O1892       O  0.04469344  0.98119263  0.72350453    -0.88390
H1893       H  0.06307850  0.99367293  0.70450842    -0.06670
H1894       H  0.98125038  0.96849552  0.74371579    -0.06840
C1895       C  0.06017836  0.98959874  0.71949078     0.86710
C1896       C  0.03978488  0.96607093  0.78072145     0.87290
C1897       C  0.99636093  0.97110982  0.73991262     0.87340
H1898       H  0.02295899  0.04873672  0.71988528    -0.06820
O1899       O  0.04937095  0.04159244  0.75834901    -0.75850
Mg1900     Mg  0.01936174  0.98805857  0.70647508     1.58000
H1901       H  0.07740752  0.03200713  0.75988709    -0.06840
C1902       C  0.08955544  0.94700014  0.74737029     0.92330
O1903       O  0.03648279  0.93704803  0.71124432    -0.83080
C1904       C  0.02343287  0.94036941  0.69842110     0.92390
O1905       O  0.06748900  0.00560467  0.81606476    -0.83060
Mg1906     Mg  0.01618685  0.04407966  0.76333759     1.58180
O1907       O  0.07487408  0.94537755  0.73602847    -0.81400
O1908       O  0.96623318  0.04107531  0.74346275    -0.83090
C1909       C  0.01424871  0.21671831  0.77440945     0.01950
C1910       C  0.03026759  0.22974868  0.77653280     0.01950
C1911       C  0.03202663  0.24569503  0.76341305     0.01950
C1912       C  0.01791252  0.24856524  0.74840691     0.01950
C1913       C  0.00212473  0.23533968  0.74622164     0.01950
C1914       C  0.00068571  0.21903990  0.75887824     0.01950
C1915       C  0.93085686  0.24135764  0.65216211     0.02800
C1916       C  0.91134643  0.24031836  0.65848714    -0.13350
C1917       C  0.90700229  0.23918930  0.67852618     0.00300
C1918       C  0.92238704  0.23893602  0.69219107    -0.11880
C1919       C  0.94200956  0.23963458  0.68611949     0.02790
C1920       C  0.94603202  0.24123740  0.66605930    -0.11300
H1921       H  0.89960255  0.24033675  0.64786123     0.08380
H1922       H  0.91902277  0.23807688  0.70764139     0.05910
H1923       H  0.96105998  0.24219514  0.66116342     0.05760
C1924       C  0.01432414  0.12636595  0.84835575     0.02800
C1925       C  0.01336098  0.13336804  0.86761778    -0.13350
C1926       C  0.00934251  0.15323366  0.87090062     0.00300
C1927       C  0.00742726  0.16601534  0.85502781    -0.11880
C1928       C  0.00845843  0.15908855  0.83581031     0.02790
C1929       C  0.01047320  0.13897672  0.83275382    -0.11300
H1930       H  0.01600553  0.12363137  0.87979844     0.08380
H1931       H  0.00576309  0.18151622  0.85780323     0.05910
H1932       H  0.01002929  0.13310711  0.81805681     0.05760
C1933       C  0.92834714  0.12672334  0.76135368     0.02800
C1934       C  0.91074388  0.13188842  0.77054636    -0.13350
C1935       C  0.90750307  0.15151293  0.77561984     0.00300
C1936       C  0.92242725  0.16524413  0.77297827    -0.11880
C1937       C  0.93882281  0.16105477  0.76136844     0.02790
C1938       C  0.94120159  0.14156049  0.75517511    -0.11300
H1939       H  0.89993632  0.12085329  0.77402586     0.08380
H1940       H  0.92056511  0.17944025  0.77954674     0.05910
H1941       H  0.95374084  0.13721520  0.74665908     0.05760
C1942       C  0.09627116  0.23737865  0.87530975     0.02800
C1943       C  0.08095384  0.23456350  0.86184235    -0.13350
C1944       C  0.08494376  0.23184375  0.84189808     0.00300
C1945       C  0.10453892  0.23084405  0.83591401    -0.11880
C1946       C  0.12012776  0.23359478  0.84909709     0.02790
C1947       C  0.11580536  0.23713022  0.86887819    -0.11300
H1948       H  0.06596871  0.23458241  0.86694742     0.08380
H1949       H  0.10771792  0.22840968  0.82059554     0.05910
H1950       H  0.12746288  0.24007392  0.87917360     0.05760
C1951       C  0.09815028  0.34191161  0.77756929     0.02800
C1952       C  0.08662174  0.32529185  0.78098041    -0.13350
C1953       C  0.08933724  0.30824570  0.76998767     0.00300
C1954       C  0.10666468  0.30674722  0.75895120    -0.11880
C1955       C  0.12068623  0.32167935  0.75924239     0.02790
C1956       C  0.11589465  0.33988271  0.76746942    -0.11300
H1957       H  0.07440641  0.32658855  0.79085809     0.08380
H1958       H  0.11002623  0.29368697  0.75073788     0.05910
H1959       H  0.12571950  0.35220398  0.76592530     0.05760
C1960       C  0.02739607  0.32108965  0.65994167     0.02800
C1961       C  0.02575072  0.34115490  0.66395852    -0.13350
C1962       C  0.02568572  0.34771931  0.68349466     0.00300
C1963       C  0.02684528  0.33402106  0.69888741    -0.11880
C1964       C  0.02726737  0.31385342  0.69497543     0.02790
C1965       C  0.02810406  0.30784819  0.67550176    -0.11300
H1966       H  0.02434923  0.35152263  0.65209885     0.08380
H1967       H  0.02709077  0.33917052  0.71384148     0.05910
H1968       H  0.02853968  0.29237906  0.67220919     0.05760
O1969       O  0.26238204  0.20521296  0.77865761    -0.88680
C1970       C  0.25818590  0.19053798  0.72063156     0.87350
Mg1971     Mg  0.23608499  0.21087686  0.79576025     1.58150
O1972       O  0.27676180  0.23745536  0.73011318    -0.88410
O1973       O  0.29050828  0.21734652  0.76940768    -0.75740
C1974       C  0.18966940  0.27824460  0.74527637     0.92400
O1975       O  0.22868109  0.18119946  0.75624720    -0.75550
O1976       O  0.18796931  0.26338170  0.75617867    -0.83060
Mg1977     Mg  0.26194940  0.17880286  0.76164930     1.57960
C1978       C  0.25665965  0.28485703  0.69727546     0.92320
O1979       O  0.29457625  0.17234536  0.76702950    -0.81320
H1980       H  0.29722783  0.25494921  0.74148842    -0.06660
C1981       C  0.21804392  0.23587936  0.71659175     0.87260
O1982       O  0.24115775  0.24420785  0.79207311    -0.75830
O1983       O  0.26792563  0.19487765  0.73521967    -0.88590
O1984       O  0.26392566  0.26780989  0.69582125    -0.81400
C1985       C  0.29953140  0.21861735  0.68769487     0.92440
C1986       C  0.30952443  0.17214669  0.75595600     0.92290
Mg1987     Mg  0.23683453  0.27071213  0.73782846     1.57950
O1988       O  0.20461853  0.28095298  0.73453033    -0.81330
O1989       O  0.26975928  0.26605706  0.74232852    -0.75570
O1990       O  0.30377546  0.20893226  0.70308047    -0.81410
O1991       O  0.25642117  0.16195443  0.78922375    -0.83120
O1992       O  0.19837372  0.24212766  0.79487180    -0.81440
C1993       C  0.28197609  0.25285444  0.73792237     0.86730
O1994       O  0.23063158  0.25259467  0.76308926    -0.88580
O1995       O  0.23348928  0.24414212  0.72104812    -0.88690
O1996       O  0.20592372  0.23037118  0.72948799    -0.75740
Mg1997     Mg  0.29437797  0.21208402  0.73607157     1.57970
O1998       O  0.28418152  0.22875603  0.68690787    -0.83120
H1999       H  0.28063649  0.21825645  0.79742171    -0.06840
O2000       O  0.22026062  0.20936349  0.76874311    -0.88390
H2001       H  0.20073849  0.19125938  0.75657876    -0.06670
H2002       H  0.24229910  0.27198588  0.78162197    -0.06840
C2003       C  0.21581881  0.19390035  0.76051173     0.86710
C2004       C  0.27783965  0.21372244  0.78254641     0.87290
C2005       C  0.23816731  0.25697860  0.77890605     0.87340
H2006       H  0.21520398  0.23250304  0.70141712    -0.06820
O2007       O  0.25242819  0.20339791  0.70859008    -0.75850
Mg2008     Mg  0.20416605  0.23580606  0.76241154     1.58000
H2009       H  0.25381904  0.17550075  0.71847783    -0.06840
C2010       C  0.24427095  0.16352971  0.80313687     0.92330
O2011       O  0.20690770  0.21635735  0.81213947    -0.83080
C2012       C  0.19495889  0.23020764  0.80866889     0.92390
O2013       O  0.31194210  0.18458172  0.74235753    -0.83060
Mg2014     Mg  0.25839774  0.23613327  0.70453049     1.58180
O2015       O  0.23266835  0.17805016  0.80457283    -0.81400
O2016       O  0.24441562  0.28906621  0.71066873    -0.83090
C2017       C  0.25020224  0.98843077  0.77868159     0.01950
C2018       C  0.26365578  0.00412545  0.77839466     0.01950
C2019       C  0.27844065  0.00482382  0.76392742     0.01950
C2020       C  0.27967806  0.99004589  0.74951143     0.01950
C2021       C  0.26527852  0.97516936  0.74871067     0.01950
C2022       C  0.25077242  0.97427670  0.76356493     0.01950
C2023       C  0.26291634  0.90348727  0.65405768     0.02800
C2024       C  0.26134799  0.91821786  0.66834386    -0.13350
C2025       C  0.26639382  0.91452169  0.68803668     0.00300
C2026       C  0.27331751  0.89568971  0.69242227    -0.11880
C2027       C  0.27154274  0.88027322  0.67903106     0.02790
C2028       C  0.26687112  0.88425944  0.65960544    -0.11300
H2029       H  0.25677668  0.93251632  0.66356623     0.08380
H2030       H  0.27947667  0.89242453  0.70653629     0.05910
H2031       H  0.26647940  0.87258615  0.64890265     0.05760
C2032       C  0.34994376  0.99481631  0.65776516     0.02800
C2033       C  0.33614529  0.99425159  0.67277772    -0.13350
C2034       C  0.34184114  0.99166896  0.69221773     0.00300
C2035       C  0.36160341  0.98837145  0.69644159    -0.11880
C2036       C  0.37564580  0.98820830  0.68142480     0.02790
C2037       C  0.36978059  0.99161379  0.66200061    -0.11300
H2038       H  0.32078221  0.99583996  0.66922551     0.08380
H2039       H  0.36613720  0.98613105  0.71145027     0.05910
H2040       H  0.38046074  0.99152488  0.65031835     0.05760
C2041       C  0.15849180  0.90287675  0.75586999     0.02800
C2042       C  0.17278470  0.91752064  0.75505088    -0.13350
C2043       C  0.19233477  0.91337982  0.75919233     0.00300
C2044       C  0.19731000  0.89440963  0.76503166    -0.11880
C2045       C  0.18292399  0.88015838  0.76801191     0.02790
C2046       C  0.16343594  0.88421409  0.76288598    -0.11300
H2047       H  0.16839865  0.93236532  0.75181831     0.08380
H2048       H  0.21245714  0.89075973  0.76787345     0.05910
H2049       H  0.15224641  0.87313584  0.76461253     0.05760
C2050       C  0.26873058  0.07218986  0.87342736     0.02800
C2051       C  0.26282923  0.09143446  0.86893439    -0.13350
C2052       C  0.25749232  0.09621283  0.84957110     0.00300
C2053       C  0.25844707  0.08185228  0.83502879    -0.11880
C2054       C  0.26387291  0.06268474  0.83944049     0.02790
C2055       C  0.26846284  0.05789221  0.85877058    -0.11300
H2056       H  0.26248468  0.10249139  0.88025733     0.08380
H2057       H  0.25515243  0.08577683  0.82003850     0.05910
H2058       H  0.27170216  0.04287614  0.86256827     0.05760
C2059       C  0.18040665  0.98656286  0.87336300     0.02800
C2060       C  0.19441728  0.98769655  0.85841776    -0.13350
C2061       C  0.18909723  0.98583032  0.83856145     0.00300
C2062       C  0.16914358  0.98295001  0.83431548    -0.11880
C2063       C  0.15489675  0.98427794  0.84903036     0.02790
C2064       C  0.16055771  0.98553931  0.86861974    -0.11300
H2065       H  0.20949575  0.98994246  0.86260731     0.08380
H2066       H  0.16436132  0.97996501  0.81958455     0.05910
H2067       H  0.14961133  0.98574836  0.88006050     0.05760
C2068       C  0.34787636  0.09932624  0.76922115     0.02800
C2069       C  0.33327909  0.08485560  0.76989273    -0.13350
C2070       C  0.33813478  0.06490171  0.77008842     0.00300
C2071       C  0.35792890  0.05983346  0.76978933    -0.11880
C2072       C  0.37259365  0.07402107  0.77129482     0.02790
C2073       C  0.36764850  0.09390951  0.77063178    -0.11300
H2074       H  0.31810333  0.08932416  0.76966593     0.08380
H2075       H  0.36217787  0.04470123  0.76815190     0.05910
H2076       H  0.37902129  0.10493393  0.77042566     0.05760
O2077       O  0.47232195  0.95779105  0.75975552    -0.88680
C2078       C  0.53041220  0.95954445  0.74717523     0.87350
Mg2079     Mg  0.45595628  0.98413692  0.76412331     1.58150
O2080       O  0.51939992  0.94379806  0.79545952    -0.88410
O2081       O  0.47955941  0.93049761  0.77460398    -0.75740
C2082       C  0.50637232  0.03449019  0.82931734     0.92400
O2083       O  0.49531616  0.99100754  0.73601830    -0.75550
O2084       O  0.49356207  0.03774299  0.81619276    -0.83060
Mg2085     Mg  0.48964918  0.95773188  0.73369452     1.57960
C2086       C  0.55094713  0.96983861  0.84099508     0.92320
O2087       O  0.48521750  0.92511085  0.72643140    -0.81320
H2088       H  0.50563944  0.92524849  0.81333143    -0.06660
C2089       C  0.53331764  0.00162434  0.78986690     0.87260
O2090       O  0.45686084  0.98012331  0.79739851    -0.75830
O2091       O  0.51472939  0.95200976  0.75190718    -0.88590
O2092       O  0.55505329  0.95947575  0.82604848    -0.81400
C2093       C  0.56130181  0.91990698  0.77488439     0.92440
C2094       C  0.49557848  0.90996594  0.72929898     0.92290
Mg2095     Mg  0.50969623  0.98650328  0.82331944     1.57950
O2096       O  0.51596513  0.01860314  0.82983921    -0.81330
O2097       O  0.50369060  0.95367347  0.82148216    -0.75570
O2098       O  0.54455029  0.91822857  0.76702337    -0.81410
O2099       O  0.46235655  0.96307136  0.71548506    -0.83120
O2100       O  0.45526841  0.02972052  0.78966430    -0.81440
C2101       C  0.50976368  0.94019497  0.81029874     0.86730
O2102       O  0.48461255  0.99339337  0.80592613    -0.88580
O2103       O  0.52811906  0.98629658  0.79781450    -0.88690
O2104       O  0.52106139  0.01478278  0.78532815    -0.75740
Mg2105     Mg  0.51268063  0.92655732  0.77033835     1.57970
O2106       O  0.56496582  0.93331426  0.78734590    -0.83120
H2107       H  0.45192853  0.94105443  0.77234879    -0.06840
O2108       O  0.48248916  0.00104996  0.76351034    -0.88390
H2109       H  0.49584690  0.01931101  0.74502260    -0.06670
H2110       H  0.46581471  0.98267158  0.82557498    -0.06840
C2111       C  0.49129854  0.00450967  0.74814450     0.86710
C2112       C  0.46720291  0.94304902  0.76881848     0.87290
C2113       C  0.46896865  0.98554516  0.81036639     0.87340
H2114       H  0.54860420  0.00381164  0.78652234    -0.06820
O2115       O  0.54312752  0.96415208  0.75987145    -0.75850
Mg2116     Mg  0.48780908  0.01947098  0.78859024     1.58000
H2117       H  0.53322654  0.96260776  0.73194102    -0.06840
C2118       C  0.44999905  0.97678913  0.71723412     0.92330
O2119       O  0.43898272  0.01139908  0.76829360    -0.83080
C2120       C  0.44061183  0.02678100  0.77846919     0.92390
O2121       O  0.50695801  0.90828865  0.74381916    -0.83060
Mg2122     Mg  0.54621978  0.96079414  0.79319826     1.58180
O2123       O  0.45071388  0.98882961  0.73134889    -0.81400
O2124       O  0.53557968  0.98014624  0.84164762    -0.83090
C2125       C  0.51742184  0.71899354  0.78094266     0.01950
C2126       C  0.50344809  0.71797724  0.76561370     0.01950
C2127       C  0.50402826  0.73135951  0.74980490     0.01950
C2128       C  0.51870119  0.74602168  0.74932930     0.01950
C2129       C  0.53275752  0.74733489  0.76457875     0.01950
C2130       C  0.53237853  0.73348801  0.78018643     0.01950
C2131       C  0.51011407  0.65056343  0.87770491     0.02800
C2132       C  0.51396432  0.63105099  0.87286694    -0.13350
C2133       C  0.51831301  0.62610592  0.85353198     0.00300
C2134       C  0.52016170  0.64086495  0.83948696    -0.11880
C2135       C  0.51414177  0.66016464  0.84332987     0.02790
C2136       C  0.50916657  0.66475395  0.86285710    -0.11300
H2137       H  0.51334227  0.61981656  0.88399269     0.08380
H2138       H  0.52605595  0.63685312  0.82544301     0.05910
H2139       H  0.50481856  0.67933457  0.86698305     0.05760
C2140       C  0.43056888  0.73888817  0.65836594     0.02800
C2141       C  0.44334682  0.73236624  0.67305908    -0.13350
C2142       C  0.44095494  0.73816137  0.69266518     0.00300
C2143       C  0.42429323  0.74913376  0.69736271    -0.11880
C2144       C  0.40959300  0.75242909  0.68352369     0.02790
C2145       C  0.41309939  0.74815717  0.66374105    -0.11300
H2146       H  0.45593335  0.72391480  0.66863994     0.08380
H2147       H  0.42229859  0.75492401  0.71189376     0.05910
H2148       H  0.40252830  0.75231569  0.65272832     0.05760
C2149       C  0.52109103  0.81943510  0.65908673     0.02800
C2150       C  0.51477926  0.83827728  0.66445063    -0.13350
C2151       C  0.50906017  0.84202573  0.68388427     0.00300
C2152       C  0.50956274  0.82688397  0.69761518    -0.11880
C2153       C  0.51459866  0.80793283  0.69208374     0.02790
C2154       C  0.52031227  0.80431419  0.67281732    -0.11300
H2155       H  0.51456697  0.84989784  0.65372292     0.08380
H2156       H  0.50624901  0.82996850  0.71279806     0.05910
H2157       H  0.52415589  0.78958459  0.66842768     0.05760
C2158       C  0.59839384  0.74826918  0.87365201     0.02800
C2159       C  0.61842470  0.74462514  0.87037723    -0.13350
C2160       C  0.62511294  0.74104141  0.85117121     0.00300
C2161       C  0.61167375  0.74078350  0.83562521    -0.11880
C2162       C  0.59190271  0.74453329  0.83893186     0.02790
C2163       C  0.58554357  0.74863496  0.85775876    -0.11300
H2164       H  0.62848996  0.74388091  0.88256577     0.08380
H2165       H  0.61660105  0.73749267  0.82092612     0.05910
H2166       H  0.57006131  0.75096226  0.86026483     0.05760
C2167       C  0.43009529  0.62878984  0.75815445     0.02800
C2168       C  0.44462705  0.64257607  0.76208146    -0.13350
C2169       C  0.43994238  0.66211597  0.76567529     0.00300
C2170       C  0.42021710  0.66761015  0.76622829    -0.11880
C2171       C  0.40539479  0.65363134  0.76336885     0.02790
C2172       C  0.41034653  0.63415282  0.75918771    -0.11300
H2173       H  0.45983094  0.63811266  0.76161359     0.08380
H2174       H  0.41633202  0.68282959  0.76817232     0.05910
H2175       H  0.39902096  0.62347807  0.75621341     0.05760
C2176       C  0.61963525  0.82135602  0.74961094     0.02800
C2177       C  0.61726930  0.84074440  0.75591882    -0.13350
C2178       C  0.59889556  0.84687565  0.76285592     0.00300
C2179       C  0.58387546  0.83300667  0.76557555    -0.11880
C2180       C  0.58592460  0.81383510  0.75840821     0.02790
C2181       C  0.60329728  0.80914557  0.74862491    -0.11300
H2182       H  0.62950560  0.85079791  0.75571927     0.08380
H2183       H  0.57079185  0.83740218  0.77321771     0.05910
H2184       H  0.60514146  0.79480199  0.74217013     0.05760
O2185       O  0.27826842  0.78804027  0.76814514    -0.88680
C2186       C  0.23290682  0.74881709  0.77479452     0.87350
Mg2187     Mg  0.30296785  0.78362289  0.74933280     1.58150
O2188       O  0.26633014  0.75159383  0.81359142    -0.88410
O2189       O  0.27184023  0.79532829  0.79853543    -0.75740
C2190       C  0.33249056  0.69401595  0.76904680     0.92400
O2191       O  0.26048633  0.75806017  0.73566550    -0.75550
O2192       O  0.32998395  0.70623698  0.75535535    -0.83060
Mg2193     Mg  0.24972492  0.78249740  0.75547010     1.57960
C2194       C  0.28464108  0.69766971  0.83668957     0.92320
O2195       O  0.23485985  0.80756146  0.77093763    -0.81320
H2196       H  0.27957940  0.76566355  0.83555197    -0.06660
C2197       C  0.27516475  0.70766201  0.77416346     0.87260
O2198       O  0.32143326  0.77206390  0.77502015    -0.75830
O2199       O  0.24317865  0.76309574  0.77884560    -0.88590
O2200       O  0.27086989  0.70997706  0.83479134    -0.81400
C2201       C  0.21814824  0.74340060  0.83096562     0.92440
C2202       C  0.22439221  0.81082024  0.78589793     0.92290
Mg2203     Mg  0.30743945  0.72036392  0.80204076     1.57950
O2204       O  0.32286876  0.69526380  0.78496917    -0.81330
O2205       O  0.29642992  0.74519224  0.82219120    -0.75570
O2206       O  0.22048009  0.75891173  0.82098076    -0.81410
O2207       O  0.25640639  0.80333191  0.73157679    -0.83120
O2208       O  0.33584438  0.74747430  0.73692580    -0.81440
C2209       C  0.28056560  0.75461854  0.82429078     0.86730
O2210       O  0.31388836  0.74129773  0.77921625    -0.88580
O2211       O  0.27880282  0.71676590  0.78931556    -0.88690
O2212       O  0.28407785  0.71129107  0.75831742    -0.75740
Mg2213     Mg  0.24651428  0.77535158  0.80779596     1.57970
O2214       O  0.22965383  0.72891384  0.82939568    -0.83120
H2215       H  0.29229782  0.80941081  0.78232923    -0.06840
O2216       O  0.29116140  0.75487706  0.74343912    -0.88390
H2217       H  0.27909376  0.73999878  0.72138932    -0.06670
H2218       H  0.33427536  0.75470173  0.79533399    -0.06840
C2219       C  0.27721608  0.75077786  0.73278847     0.86710
C2220       C  0.28117102  0.79818689  0.78278379     0.87290
C2221       C  0.32373338  0.75578906  0.78361552     0.87340
H2222       H  0.26371324  0.69676560  0.77425957    -0.06820
O2223       O  0.23532388  0.73251839  0.78323682    -0.75850
Mg2224     Mg  0.30982263  0.73100632  0.74959287     1.58000
H2225       H  0.22203638  0.75007609  0.76340312    -0.06840
C2226       C  0.27112653  0.80799791  0.72139781     0.92330
O2227       O  0.32904216  0.77836574  0.72925502    -0.83080
C2228       C  0.33984054  0.76329534  0.72798213     0.92390
O2229       O  0.22529827  0.80025917  0.80114940    -0.83060
Mg2230     Mg  0.25472721  0.72270612  0.80867940     1.58180
O2231       O  0.28767743  0.79977507  0.72381892    -0.81400
O2232       O  0.29962811  0.69788410  0.82564448    -0.83090
C2233       C  0.28167772  0.74008016  0.02349597     0.01950
C2234       C  0.26697062  0.75446218  0.02471336     0.01950
C2235       C  0.25173665  0.75498594  0.01060060     0.01950
C2236       C  0.25154133  0.74131237  0.99485600     0.01950
C2237       C  0.26600596  0.72645094  0.99416058     0.01950
C2238       C  0.28097949  0.72585760  0.00848049     0.01950
C2239       C  0.15793873  0.82151839  0.02425739     0.02800
C2240       C  0.15981413  0.84009389  0.01547021    -0.13350
C2241       C  0.17817023  0.84595257  0.00794705     0.00300
C2242       C  0.19355142  0.83249437  0.00744765    -0.11880
C2243       C  0.19223229  0.81477956  0.01753187     0.02790
C2244       C  0.17476140  0.81029803  0.02715925    -0.11300
H2245       H  0.14729314  0.84965736  0.01420187     0.08380
H2246       H  0.20670679  0.83621811  0.99952594     0.05910
H2247       H  0.17349091  0.79680773  0.03533571     0.05760
C2248       C  0.26926727  0.62727159  0.92981144     0.02800
C2249       C  0.27140329  0.63223263  0.91003483    -0.13350
C2250       C  0.27056128  0.65188713  0.90447866     0.00300
C2251       C  0.26587686  0.66615932  0.91828756    -0.11880
C2252       C  0.26536381  0.66189146  0.93838543     0.02790
C2253       C  0.26771030  0.64217630  0.94394702    -0.11300
H2254       H  0.27408158  0.62099750  0.89920484     0.08380
H2255       H  0.26352425  0.68086774  0.91304451     0.05910
H2256       H  0.26870139  0.63815368  0.95915222     0.05760
C2257       C  0.27022076  0.84478150  0.09788063     0.02800
C2258       C  0.27328776  0.83040533  0.08349353    -0.13350
C2259       C  0.27297625  0.81052008  0.08812890     0.00300
C2260       C  0.27019497  0.80499157  0.10762836    -0.11880
C2261       C  0.26707007  0.81911158  0.12217297     0.02790
C2262       C  0.26713046  0.83904017  0.11733235    -0.11300
H2263       H  0.27462127  0.83473401  0.06832316     0.08380
H2264       H  0.26952067  0.78962001  0.11139566     0.05910
H2265       H  0.26372440  0.84985217  0.12838454     0.05760
C2266       C  0.15401739  0.73759775  0.92939353     0.02800
C2267       C  0.15871592  0.73903645  0.90945029    -0.13350
C2268       C  0.17823652  0.74167133  0.90369801     0.00300
C2269       C  0.19304644  0.74246532  0.91785472    -0.11880
C2270       C  0.18860051  0.74063254  0.93771157     0.02790
C2271       C  0.16902977  0.73841062  0.94341674    -0.11300
H2272       H  0.14728961  0.73817273  0.89851826     0.08380
H2273       H  0.20814756  0.74415152  0.91333851     0.05910
H2274       H  0.16546183  0.73730216  0.95881006     0.05760
C2275       C  0.37235459  0.73521732  0.09908203     0.02800
C2276       C  0.35853389  0.73975222  0.08459088    -0.13350
C2277       C  0.33908184  0.73299105  0.08605411     0.00300
C2278       C  0.33416524  0.72164342  0.10240320    -0.11880
C2279       C  0.34695691  0.71971968  0.11820677     0.02790
C2280       C  0.36628391  0.72621714  0.11641712    -0.11300
H2281       H  0.36348273  0.74773813  0.07191078     0.08380
H2282       H  0.32002314  0.71472605  0.10337919     0.05910
H2283       H  0.37662186  0.72373169  0.12814669     0.05760
C2284       C  0.34700577  0.62996338  0.02270010     0.02800
C2285       C  0.33229354  0.64413348  0.02172122    -0.13350
C2286       C  0.33681036  0.66344661  0.01702694     0.00300
C2287       C  0.35616424  0.66843595  0.01275944    -0.11880
C2288       C  0.37081368  0.65426298  0.01227241     0.02790
C2289       C  0.36639443  0.63498419  0.01786115    -0.11300
H2290       H  0.31720208  0.63990666  0.02405431     0.08380
H2291       H  0.35984256  0.68346766  0.00933121     0.05910
H2292       H  0.37775826  0.62398452  0.01806712     0.05760
O2293       O  0.50156988  0.76158145  0.04104484    -0.88680
C2294       C  0.45614432  0.75276930  0.00302313     0.87350
Mg2295     Mg  0.52541719  0.78057844  0.03379949     1.58150
O2296       O  0.48998392  0.71373882  0.00476394    -0.88410
O2297       O  0.49761343  0.73062248  0.04761179    -0.75740
C2298       C  0.55241447  0.75601369  0.94390651     0.92400
O2299       O  0.48293462  0.79269004  0.01091974    -0.75550
O2300       O  0.55230037  0.77151863  0.95425841    -0.83060
Mg2301     Mg  0.47246836  0.77368281  0.03662362     1.57960
C2302       C  0.50791135  0.68945664  0.95155928     0.92320
O2303       O  0.45685837  0.75800863  0.06257413    -0.81320
H2304       H  0.50276995  0.69212369  0.01960898    -0.06660
C2305       C  0.49726950  0.75149811  0.95978131     0.87260
O2306       O  0.54474010  0.75511949  0.02367167    -0.75830
O2307       O  0.46679339  0.74947207  0.01720250    -0.88590
O2308       O  0.49223127  0.69199458  0.96128092    -0.81400
C2309       C  0.44158769  0.69630308  0.99927033     0.92440
C2310       C  0.44819325  0.74161147  0.06460918     0.92290
Mg2311     Mg  0.52987711  0.72515770  0.97464852     1.57950
O2312       O  0.54345941  0.74074878  0.94933176    -0.81330
O2313       O  0.52034720  0.70567831  0.99997123    -0.75570
O2314       O  0.44547848  0.70677968  0.01411332    -0.81410
O2315       O  0.47906588  0.79949546  0.05690629    -0.83120
O2316       O  0.55840641  0.79362894  0.99582784    -0.81440
C2317       C  0.50409166  0.70318846  0.00842631     0.86730
O2318       O  0.53665130  0.74948936  0.99333134    -0.88580
O2319       O  0.50089226  0.73710389  0.97001344    -0.88690
O2320       O  0.50637685  0.76752032  0.96198278    -0.75740
Mg2321     Mg  0.47180725  0.72057686  0.02889463     1.57970
O2322       O  0.45181671  0.69699037  0.98375265    -0.83120
H2323       H  0.51738053  0.74790924  0.06139541    -0.06840
O2324       O  0.51320173  0.78457990  0.00492835    -0.88390
H2325       H  0.49959940  0.80574208  0.99013298    -0.06670
H2326       H  0.55806426  0.73481093  0.00666534    -0.06840
C2327       C  0.49880436  0.79488792  0.00157358     0.86710
C2328       C  0.50582093  0.74695394  0.05066696     0.87290
C2329       C  0.54707710  0.74610128  0.00764317     0.87340
H2330       H  0.48571088  0.75058596  0.94904199    -0.06820
O2331       O  0.45800401  0.74342156  0.98710901    -0.75850
Mg2332     Mg  0.53228095  0.77829506  0.98054939     1.58000
H2333       H  0.44527069  0.76416936  0.00404769    -0.06840
C2334       C  0.49425644  0.81028296  0.05752044     0.92330
O2335       O  0.54969574  0.80154812  0.02623094    -0.83080
C2336       C  0.56038893  0.80397386  0.01124784     0.92390
O2337       O  0.45207907  0.72727630  0.05354436    -0.83060
Mg2338     Mg  0.47689747  0.71779814  0.97635615     1.58180
O2339       O  0.50966884  0.80625765  0.04791213    -0.81400
O2340       O  0.52281001  0.70033277  0.95393090    -0.83090
O2341       O  0.06039070  0.72449724  0.01508477    -0.88680
C2342       C  0.02318944  0.77103782  0.02305995     0.87350
Mg2343     Mg  0.05377593  0.70059874  0.99551075     1.58150
O2344       O  0.02496749  0.73737863  0.06169485    -0.88410
O2345       O  0.06814913  0.73013584  0.04555046    -0.75740
C2346       C  0.96470335  0.67215798  0.01857011     0.92400
O2347       O  0.03123056  0.74414815  0.98335702    -0.75550
O2348       O  0.97610291  0.67563079  0.00436514    -0.83060
Mg2349     Mg  0.05656931  0.75359318  0.00312881     1.57960
C2350       C  0.97165686  0.71928201  0.08678703     0.92320
O2351       O  0.08214221  0.76683597  0.01921161    -0.81320
H2352       H  0.03918873  0.72369141  0.08320320    -0.06660
C2353       C  0.97928948  0.72989138  0.02349240     0.87260
O2354       O  0.04246345  0.68181646  0.02110859    -0.75830
O2355       O  0.03751415  0.76080810  0.02696477    -0.88590
O2356       O  0.98201181  0.73428436  0.08303616    -0.81400
C2357       C  0.01856724  0.78508798  0.08048601     0.92440
C2358       C  0.08725648  0.77587437  0.03459463     0.92290
Mg2359     Mg  0.99261570  0.69684275  0.05073972     1.57950
O2360       O  0.96664107  0.68115149  0.03481723    -0.81330
O2361       O  0.01820321  0.70731850  0.07002623    -0.75570
O2362       O  0.03450346  0.78252954  0.07111006    -0.81410
O2363       O  0.07768447  0.74617631  0.97893471    -0.83120
O2364       O  0.01627165  0.66869304  0.98558011    -0.81440
C2365       C  0.02788617  0.72301321  0.07217943     0.86730
O2366       O  0.01238623  0.69079861  0.02699546    -0.88580
O2367       O  0.98884757  0.72576430  0.03821873    -0.88690
O2368       O  0.98232941  0.72145270  0.00727647    -0.75740
Mg2369     Mg  0.04972204  0.75629370  0.05598839     1.57970
O2370       O  0.00370178  0.77428039  0.07773285    -0.83120
H2371       H  0.08094975  0.70912244  0.02897936    -0.06840
O2372       O  0.02553875  0.71385918  0.99134484    -0.88390
H2373       H  0.01110613  0.72711875  0.96971593    -0.06670
H2374       H  0.02537725  0.66933193  0.04191509    -0.06840
C2375       C  0.02227153  0.72812241  0.98085081     0.86710
C2376       C  0.07037341  0.72082425  0.02965147     0.87290
C2377       C  0.02651071  0.68013354  0.03045396     0.87340
H2378       H  0.96861669  0.74149474  0.02426228    -0.06820
O2379       O  0.00690390  0.76861000  0.03159142    -0.75850
Mg2380     Mg  0.00115336  0.69546976  0.99794471     1.58000
H2381       H  0.02437548  0.78188145  0.01164769    -0.06840
C2382       C  0.08002525  0.73125839  0.96812634     0.92330
O2383       O  0.04586180  0.67580411  0.97422234    -0.83080
C2384       C  0.03046791  0.66529971  0.97412414     0.92390
O2385       O  0.07640860  0.77616191  0.04974670    -0.83060
Mg2386     Mg  0.99625229  0.74969533  0.05712475     1.58180
O2387       O  0.06951506  0.71595406  0.96989264    -0.81400
O2388       O  0.97195575  0.70409730  0.07598761    -0.83090
C2389       C  0.03001448  0.73922673  0.28255027     0.01950
C2390       C  0.02984413  0.75418370  0.26807531     0.01950
C2391       C  0.01567342  0.75368296  0.25286619     0.01950
C2392       C  0.00074776  0.73925512  0.25330951     0.01950
C2393       C  0.00121976  0.72436475  0.26757771     0.01950
C2394       C  0.01555208  0.72447334  0.28236797     0.01950
C2395       C  0.00578683  0.62738068  0.34775782     0.02800
C2396       C  0.00290989  0.63251771  0.36746631    -0.13350
C2397       C  0.00136674  0.65230443  0.37270494     0.00300
C2398       C  0.00363760  0.66681266  0.35855295    -0.11880
C2399       C  0.00655968  0.66202805  0.33892390     0.02790
C2400       C  0.00690126  0.64219465  0.33354056    -0.11300
H2401       H  0.00214454  0.62130174  0.37859643     0.08380
H2402       H  0.00352817  0.68200617  0.36306148     0.05910
H2403       H  0.00834568  0.63816943  0.31830314     0.05760
C2404       C  0.01249209  0.82074931  0.15565491     0.02800
C2405       C  0.00650197  0.83964710  0.16111690    -0.13350
C2406       C  0.00296672  0.84406673  0.18084262     0.00300
C2407       C  0.00579287  0.82959680  0.19502381    -0.11880
C2408       C  0.01100646  0.81044341  0.18981236     0.02790
C2409       C  0.01457815  0.80619047  0.17006085    -0.11300
H2410       H  0.00465879  0.85084455  0.15009281     0.08380
H2411       H  0.00388220  0.83332704  0.21029983     0.05910
H2412       H  0.01846962  0.79144728  0.16579022     0.05760
C2413       C  0.93260895  0.63014634  0.25736983     0.02800
C2414       C  0.91440776  0.63293151  0.26649493    -0.13350
C2415       C  0.91069113  0.65070921  0.27612833     0.00300
C2416       C  0.92583086  0.66433496  0.27807035    -0.11880
C2417       C  0.94255244  0.66314426  0.26625714     0.02790
C2418       C  0.94537687  0.64598658  0.25537411    -0.11300
H2419       H  0.90343973  0.62151300  0.26621464     0.08380
H2420       H  0.92357283  0.67667256  0.28763963     0.05910
H2421       H  0.95829228  0.64398281  0.24650757     0.05760
C2422       C  0.10146291  0.84739264  0.26191742     0.02800
C2423       C  0.08795014  0.83351152  0.26886515    -0.13350
C2424       C  0.08983841  0.81366441  0.26400168     0.00300
C2425       C  0.10572353  0.80809830  0.25238891    -0.11880
C2426       C  0.12056252  0.82118735  0.24739438     0.02790
C2427       C  0.11833020  0.84110156  0.25196358    -0.11300
H2428       H  0.07533342  0.83858302  0.27692734     0.08380
H2429       H  0.10686664  0.79322048  0.24728325     0.05910
H2430       H  0.12911621  0.85162062  0.24709409     0.05760
C2431       C  0.93130575  0.72605182  0.15978138     0.02800
C2432       C  0.91155262  0.72891465  0.16458050    -0.13350
C2433       C  0.90622194  0.73250570  0.18408640     0.00300
C2434       C  0.92063769  0.73211822  0.19873909    -0.11880
C2435       C  0.94055695  0.73001444  0.19399990     0.02790
C2436       C  0.94563184  0.72764543  0.17430426    -0.11300
H2437       H  0.90053257  0.72880867  0.15321069     0.08380
H2438       H  0.91622582  0.73402693  0.21381935     0.05910
H2439       H  0.96085046  0.72746827  0.16999744     0.05760
C2440       C  0.10092490  0.74037753  0.37618362     0.02800
C2441       C  0.08570603  0.74282632  0.36258509    -0.13350
C2442       C  0.08967413  0.74390990  0.34254047     0.00300
C2443       C  0.10914108  0.74295421  0.33629891    -0.11880
C2444       C  0.12439961  0.73938670  0.34951566     0.02790
C2445       C  0.12030351  0.73848795  0.36961700    -0.11300
H2446       H  0.07069712  0.74284532  0.36763011     0.08380
H2447       H  0.11235402  0.74360001  0.32079444     0.05910
H2448       H  0.13185685  0.73526550  0.37994177     0.05760
O2449       O  0.27271854  0.73068161  0.22452530    -0.88680
C2450       C  0.21467588  0.72760978  0.21058071     0.87350
Mg2451     Mg  0.29015869  0.70525352  0.23049989     1.58150
O2452       O  0.22520202  0.74555382  0.25748818    -0.88410
O2453       O  0.26467889  0.75885660  0.23723775    -0.75740
C2454       C  0.24001486  0.65696507  0.29650758     0.92400
O2455       O  0.25012203  0.69673651  0.20123517    -0.75550
O2456       O  0.25068902  0.65416028  0.28159569    -0.83060
Mg2457     Mg  0.25563541  0.72978123  0.19830108     1.57960
C2458       C  0.19321334  0.72395950  0.30486606     0.92320
O2459       O  0.26106056  0.76210858  0.19110156    -0.81320
H2460       H  0.23724584  0.76559044  0.27502343    -0.06660
C2461       C  0.21123175  0.68740298  0.25505619     0.87260
O2462       O  0.28705617  0.71048377  0.26353097    -0.75830
O2463       O  0.22992266  0.73626984  0.21495469    -0.88590
O2464       O  0.19114674  0.73297954  0.28872675    -0.81400
C2465       C  0.18396571  0.76946420  0.23754016     0.92440
C2466       C  0.25136930  0.77791450  0.19232979     0.92290
Mg2467     Mg  0.23374619  0.70491419  0.28956345     1.57950
O2468       O  0.23079033  0.67285129  0.29941736    -0.81330
O2469       O  0.23842628  0.73787568  0.28545394    -0.75570
O2470       O  0.19953679  0.77123309  0.22756507    -0.81410
O2471       O  0.28272098  0.72350645  0.18106764    -0.83120
O2472       O  0.28937153  0.66350516  0.25865673    -0.81440
C2473       C  0.23354806  0.75040207  0.27272164     0.86730
O2474       O  0.25878810  0.69814735  0.27176052    -0.88580
O2475       O  0.21581812  0.70272031  0.26346257    -0.88690
O2476       O  0.22397986  0.67498042  0.24987001    -0.75740
Mg2477     Mg  0.23163060  0.76263478  0.23204028     1.57970
O2478       O  0.18133770  0.75557321  0.24959819    -0.83120
H2479       H  0.29244416  0.74842242  0.23682678    -0.06840
O2480       O  0.26358872  0.68825293  0.22894711    -0.88390
H2481       H  0.25093682  0.66879575  0.21114123    -0.06670
H2482       H  0.27693808  0.70994446  0.29140515    -0.06840
C2483       C  0.25494383  0.68386936  0.21369495     0.86710
C2484       C  0.27733847  0.74602703  0.23284946     0.87290
C2485       C  0.27432394  0.70614438  0.27629374     0.87340
H2486       H  0.19605598  0.68481601  0.25146436    -0.06820
O2487       O  0.20219916  0.72279867  0.22344849    -0.75850
Mg2488     Mg  0.25705139  0.67163737  0.25457396     1.58000
H2489       H  0.21215383  0.72355552  0.19551531    -0.06840
C2490       C  0.29651553  0.71131425  0.18313690     0.92330
O2491       O  0.30862786  0.67857874  0.23728066    -0.83080
C2492       C  0.30576613  0.66538696  0.25002868     0.92390
O2493       O  0.23822987  0.78055153  0.20514120    -0.83060
Mg2494     Mg  0.19893690  0.72832552  0.25645250     1.58180
O2495       O  0.29812327  0.70050694  0.19814951    -0.81400
O2496       O  0.20699850  0.71189454  0.30792736    -0.83090
C2497       C  0.14378514  0.71838301  0.32760227    -0.09490
C2498       C  0.14361103  0.73361317  0.34136629     0.06710
C2499       C  0.16100312  0.74413609  0.34493569    -0.03260
C2500       C  0.17777880  0.74017617  0.33374874    -0.07710
C2501       C  0.17734749  0.72576313  0.31915623     0.05820
C2502       C  0.16033284  0.71456290  0.31643115    -0.02730
Br2503     Br  0.15846463  0.69493732  0.29640505    -0.02430
H2504       H  0.13058366  0.71006100  0.32479260     0.09730
H2505       H  0.19080745  0.74895145  0.33578025     0.07750
Br2506     Br  0.16205275  0.76508295  0.36350572    -0.02850
C2507       C  0.15549964  0.81412442  0.25215645    -0.09490
C2508       C  0.13905873  0.81271309  0.24001791     0.06710
C2509       C  0.13905445  0.79875124  0.22472982    -0.03260
C2510       C  0.15420817  0.78504467  0.22337224    -0.07710
C2511       C  0.16956862  0.78534099  0.23687517     0.05820
C2512       C  0.17066175  0.80055591  0.25068991    -0.02730
Br2513     Br  0.19187944  0.80233500  0.26897135    -0.02430
H2514       H  0.15572849  0.82463013  0.26400910     0.09730
H2515       H  0.15356973  0.77370047  0.21234039     0.07750
Br2516     Br  0.11798648  0.79707845  0.20624827    -0.02850
C2517       C  0.99763554  0.69488155  0.32568269    -0.09490
C2518       C  0.00939403  0.67800860  0.32446531     0.06710
C2519       C  0.02425873  0.67738078  0.31018195    -0.03260
C2520       C  0.02613919  0.69268031  0.29688874    -0.07710
C2521       C  0.01450097  0.70943754  0.29810141     0.05820
C2522       C  0.00041555  0.71064970  0.31298479    -0.02730
Br2523     Br  0.98466676  0.73355616  0.31641958    -0.02430
H2524       H  0.98622659  0.69587873  0.33659950     0.09730
H2525       H  0.03650609  0.69111198  0.28525175     0.07750
Br2526     Br  0.04354075  0.65703175  0.30865372    -0.02850
C2527       C  0.96706713  0.71280904  0.27168967    -0.09490
C2528       C  0.98644139  0.70847857  0.26705789     0.06710
C2529       C  0.99126654  0.68946176  0.26113396    -0.03260
C2530       C  0.97717867  0.67476845  0.26210154    -0.07710
C2531       C  0.95737453  0.67918133  0.26595646     0.05820
C2532       C  0.95234648  0.69899302  0.26930950    -0.02730
Br2533     Br  0.92627825  0.70942838  0.26740603    -0.02430
H2534       H  0.96318028  0.72733465  0.27620158     0.09730
H2535       H  0.98195139  0.65999773  0.25932755     0.07750
Br2536     Br  0.01619389  0.68315688  0.24995066    -0.02850
C2537       C  0.98834929  0.72482103  0.22252378    -0.09490
C2538       C  0.98553870  0.73820681  0.23773375     0.06710
C2539       C  0.96740464  0.74799395  0.23919077    -0.03260
C2540       C  0.95339766  0.74555412  0.22454000    -0.07710
C2541       C  0.95606416  0.73202095  0.20927266     0.05820
C2542       C  0.97357815  0.72097199  0.20894511    -0.02730
Br2543     Br  0.97755362  0.69866072  0.19235994    -0.02430
H2544       H  0.00173029  0.71639976  0.22196160     0.09730
H2545       H  0.94014399  0.75411424  0.22541800     0.07750
Br2546     Br  0.95981769  0.76353113  0.26142705    -0.02850
C2547       C  0.00029550  0.78145863  0.23556388    -0.09490
C2548       C  0.01586056  0.76837845  0.23665466     0.06710
C2549       C  0.02998701  0.76865254  0.22162359    -0.03260
C2550       C  0.02844485  0.78238599  0.20633599    -0.07710
C2551       C  0.01227301  0.79511538  0.20521278     0.05820
C2552       C  0.99763847  0.79356507  0.21957177    -0.02730
Br2553     Br  0.97237523  0.80536582  0.21729899    -0.02430
H2554       H  0.98993142  0.78205062  0.24697620     0.09730
H2555       H  0.03974418  0.78300252  0.19531328     0.07750
Br2556     Br  0.05106136  0.75025480  0.22096979    -0.02850
C2557       C  0.05462724  0.80416397  0.26995020    -0.09490
C2558       C  0.07451529  0.79885797  0.26883734     0.06710
C2559       C  0.07921446  0.77881132  0.27033767    -0.03260
C2560       C  0.06461405  0.76490460  0.26809364    -0.07710
C2561       C  0.04485092  0.77002825  0.26873941     0.05820
C2562       C  0.03999431  0.78987591  0.27129381    -0.02730
Br2563     Br  0.01419967  0.79812852  0.27840339    -0.02430
H2564       H  0.05024469  0.81932270  0.26982440     0.09730
H2565       H  0.06883148  0.74988988  0.26654540     0.07750
Br2566     Br  0.10457375  0.76921409  0.27794197    -0.02850
C2567       C  0.04276009  0.75316185  0.31371808    -0.09490
C2568       C  0.04480683  0.73956171  0.29848928     0.06710
C2569       C  0.06161321  0.72765507  0.29785531    -0.03260
C2570       C  0.07549161  0.72899886  0.31268531    -0.07710
C2571       C  0.07373124  0.74279827  0.32780691     0.05820
C2572       C  0.05720285  0.75512905  0.32812368    -0.02730
Br2573     Br  0.05442303  0.77605188  0.34658683    -0.02430
H2574       H  0.03021283  0.76279829  0.31394069     0.09730
H2575       H  0.08811938  0.71949003  0.31204842     0.07750
Br2576     Br  0.06808800  0.71130392  0.27590007    -0.02850
C2577       C  0.95661071  0.70368280  0.11613160    -0.09490
C2578       C  0.95868465  0.72011534  0.10406687     0.06710
C2579       C  0.94884144  0.73758114  0.10917716    -0.03260
C2580       C  0.93860883  0.73880108  0.12680423    -0.07710
C2581       C  0.93782265  0.72283784  0.13949607     0.05820
C2582       C  0.94635032  0.70498234  0.13380046    -0.02730
Br2583     Br  0.94480105  0.68223318  0.15006084    -0.02430
H2584       H  0.96369178  0.69007515  0.11225925     0.09730
H2585       H  0.93199477  0.75254458  0.13103723     0.07750
Br2586     Br  0.94853699  0.76026528  0.09266143    -0.02850
C2587       C  0.99934151  0.81618745  0.12203568    -0.09490
C2588       C  0.01537746  0.81562715  0.13480592     0.06710
C2589       C  0.03339109  0.80846398  0.12790020    -0.03260
C2590       C  0.03466330  0.80044318  0.10911297    -0.07710
C2591       C  0.01809155  0.79914510  0.09700484     0.05820
C2592       C  0.00054688  0.80800917  0.10328883    -0.02730
Br2593     Br  0.97768792  0.80899440  0.08707440    -0.02430
H2594       H  0.98552080  0.82205960  0.12703335     0.09730
H2595       H  0.04832655  0.79386456  0.10458451     0.07750
Br2596     Br  0.05646409  0.80866225  0.14386810    -0.02850
C2597       C  0.41136052  0.68080537  0.98587436    -0.09490
C2598       C  0.42508976  0.68248844  0.00097642     0.06710
C2599       C  0.42231136  0.67160903  0.01833761    -0.03260
C2600       C  0.40520085  0.66080978  0.02104311    -0.07710
C2601       C  0.39066831  0.66061056  0.00670545     0.05820
C2602       C  0.39416150  0.67002772  0.98865956    -0.02730
Br2603     Br  0.37540603  0.66930739  0.96778688    -0.02430
H2604       H  0.41349871  0.68869735  0.97232771     0.09730
H2605       H  0.40270955  0.65356039  0.03488996     0.07750
Br2606     Br  0.44127178  0.67103205  0.03905420    -0.02850
C2607       C  0.33708289  0.72954655  0.15113036    -0.09490
C2608       C  0.33853834  0.71451942  0.13731083     0.06710
C2609       C  0.32787467  0.69708064  0.14012560    -0.03260
C2610       C  0.31483626  0.69553944  0.15585704    -0.07710
C2611       C  0.31216683  0.71138358  0.16855433     0.05820
C2612       C  0.32389141  0.72817179  0.16654981    -0.02730
Br2613     Br  0.32159375  0.75011609  0.18393358    -0.02430
H2614       H  0.34503096  0.74309049  0.14901541     0.09730
H2615       H  0.30607070  0.68245910  0.15754290     0.07750
Br2616     Br  0.32999436  0.67557827  0.12225820    -0.02850
C2617       C  0.42042249  0.72176895  0.07658191    -0.09490
C2618       C  0.43129638  0.73922842  0.07822068     0.06710
C2619       C  0.42344962  0.75459417  0.08972411    -0.03260
C2620       C  0.40447012  0.75286972  0.09748202    -0.07710
C2621       C  0.39326514  0.73603302  0.09406925     0.05820
C2622       C  0.40158160  0.72024576  0.08400776    -0.02730
Br2623     Br  0.38698232  0.69690107  0.07822042    -0.02430
H2624       H  0.42589050  0.70954467  0.06815563     0.09730
H2625       H  0.39816399  0.76496985  0.10549799     0.07750
Br2626     Br  0.43734565  0.77841394  0.09499960    -0.02850
C2627       C  0.12897789  0.71784770  0.94654365    -0.09490
C2628       C  0.13359953  0.73476922  0.93599049     0.06710
C2629       C  0.11937644  0.74951231  0.93398650    -0.03260
C2630       C  0.10129043  0.74762367  0.94346096    -0.07710
C2631       C  0.09696136  0.73101788  0.95471173     0.05820
C2632       C  0.11090139  0.71583469  0.95584399    -0.02730
Br2633     Br  0.10736940  0.69321573  0.97209708    -0.02430
H2634       H  0.13988846  0.70652469  0.94833789     0.09730
H2635       H  0.09091089  0.75953661  0.94275394     0.07750
Br2636     Br  0.12466319  0.77329612  0.92015561    -0.02850
C2637       C  0.27596190  0.81183303  0.15658438    -0.09490
C2638       C  0.26168539  0.81247506  0.14189199     0.06710
C2639       C  0.24316225  0.80416360  0.14530994    -0.03260
C2640       C  0.23949779  0.79446201  0.16286079    -0.07710
C2641       C  0.25423306  0.79253121  0.17694801     0.05820
C2642       C  0.27237730  0.80176221  0.17403137    -0.02730
Br2643     Br  0.29274174  0.80028270  0.19320016    -0.02430
H2644       H  0.29024337  0.81818178  0.15402415     0.09730
H2645       H  0.22556353  0.78719006  0.16490531     0.07750
Br2646     Br  0.22300412  0.80433344  0.12577010    -0.02850
C2647       C  0.10753186  0.80550630  0.04286067    -0.09490
C2648       C  0.10581168  0.78713010  0.03364344     0.06710
C2649       C  0.12113441  0.78077965  0.02136601    -0.03260
C2650       C  0.13706066  0.79290639  0.01786823    -0.07710
C2651       C  0.13895187  0.81121584  0.02699068     0.05820
C2652       C  0.12402740  0.81749842  0.03970373    -0.02730
Br2653     Br  0.12586930  0.84182183  0.05345603    -0.02430
H2654       H  0.09588708  0.81071596  0.05221953     0.09730
H2655       H  0.14850355  0.78766784  0.00824745     0.07750
Br2656     Br  0.12202828  0.75521843  0.00957774    -0.02850
C2657       C  0.25766875  0.69201825  0.98530680    -0.09490
C2658       C  0.26469837  0.71037922  0.97947449     0.06710
C2659       C  0.27021189  0.71306561  0.95991417    -0.03260
C2660       C  0.27138016  0.69699011  0.94748573    -0.07710
C2661       C  0.26422077  0.67838330  0.95295992     0.05820
C2662       C  0.25615989  0.67649475  0.97199651    -0.02730
Br2663     Br  0.24053024  0.65470563  0.98035406    -0.02430
H2664       H  0.25230018  0.69012655  0.00008044     0.09730
H2665       H  0.27798537  0.69945565  0.93337812     0.07750
Br2666     Br  0.27625018  0.73821538  0.94904469    -0.02850
C2667       C  0.32206453  0.69007471  0.99792466    -0.09490
C2668       C  0.32134496  0.67823318  0.01459222     0.06710
C2669       C  0.30662075  0.68146900  0.02863589    -0.03260
C2670       C  0.29295762  0.69627901  0.02559403    -0.07710
C2671       C  0.29449434  0.70890397  0.00948896     0.05820
C2672       C  0.30937188  0.70568556  0.99560426    -0.02730
Br2673     Br  0.31507399  0.72275024  0.97426892    -0.02430
H2674       H  0.33320449  0.68767993  0.98693060     0.09730
H2675       H  0.28166308  0.69867587  0.03642608     0.07750
Br2676     Br  0.30562504  0.66788569  0.05315612    -0.02850
C2677       C  0.29065183  0.73551238  0.05852253    -0.09490
C2678       C  0.29676195  0.73885162  0.03929542     0.06710
C2679       C  0.31671787  0.74227973  0.03580362    -0.03260
C2680       C  0.33031090  0.73962157  0.05081439    -0.07710
C2681       C  0.32424257  0.73646898  0.07026579     0.05820
C2682       C  0.30381900  0.73635360  0.07403501    -0.02730
Br2683     Br  0.29230254  0.74118406  0.09928201    -0.02430
H2684       H  0.27529010  0.73364526  0.06164708     0.09730
H2685       H  0.34559318  0.74057540  0.04703244     0.07750
Br2686     Br  0.32595816  0.75315952  0.01181673    -0.02850
C2687       C  0.22303890  0.72530422  0.97826617    -0.09490
C2688       C  0.23555485  0.74156622  0.97979095     0.06710
C2689       C  0.23262550  0.75744704  0.96692484    -0.03260
C2690       C  0.21719091  0.75695444  0.95344871    -0.07710
C2691       C  0.20453685  0.74080787  0.95236437     0.05820
C2692       C  0.20776820  0.72476174  0.96476743    -0.02730
Br2693     Br  0.19244981  0.70127721  0.96330279    -0.02430
H2694       H  0.22480326  0.71305803  0.98806918     0.09730
H2695       H  0.21509795  0.76921316  0.94367219     0.07750
Br2696     Br  0.24981679  0.77962455  0.96611029    -0.02850
C2697       C  0.24175791  0.78990734  0.01309479    -0.09490
C2698       C  0.23624709  0.77012640  0.01240439     0.06710
C2699       C  0.21633580  0.76526515  0.01445208    -0.03260
C2700       C  0.20244968  0.78003105  0.01498806    -0.07710
C2701       C  0.20791309  0.79983551  0.01629241     0.05820
C2702       C  0.22801578  0.80457901  0.01628383    -0.02730
Br2703     Br  0.23812156  0.82994769  0.02295711    -0.02430
H2704       H  0.25701812  0.79392605  0.01191295     0.09730
H2705       H  0.18722016  0.77575655  0.01494059     0.07750
Br2706     Br  0.20693894  0.73920922  0.01905410    -0.02850
C2707       C  0.25707844  0.78200498  0.07218683    -0.09490
C2708       C  0.27234509  0.79573952  0.07225151     0.06710
C2709       C  0.28585198  0.79569588  0.05667017    -0.03260
C2710       C  0.28338762  0.78266612  0.04110249    -0.07710
C2711       C  0.26797595  0.76908254  0.04095986     0.05820
C2712       C  0.25501870  0.76856073  0.05697083    -0.02730
Br2713     Br  0.23546496  0.74876327  0.05993065    -0.02430
H2714       H  0.24665263  0.78168665  0.08409388     0.09730
H2715       H  0.29381907  0.78279266  0.02920380     0.07750
Br2716     Br  0.30870466  0.81199001  0.05653432    -0.02850
C2717       C  0.20103098  0.76082091  0.85751796    -0.09490
C2718       C  0.20331065  0.74348600  0.84670082     0.06710
C2719       C  0.19401005  0.72631458  0.85332576    -0.03260
C2720       C  0.18430155  0.72630301  0.87136642    -0.07710
C2721       C  0.18378855  0.74321396  0.88295024     0.05820
C2722       C  0.19154609  0.76074165  0.87557308    -0.02730
Br2723     Br  0.19079548  0.78458451  0.89036951    -0.02430
H2724       H  0.20797395  0.77421273  0.85269741     0.09730
H2725       H  0.17815459  0.71279542  0.87687739     0.07750
Br2726     Br  0.19432753  0.70254987  0.83848840    -0.02850
C2727       C  0.29775572  0.67838794  0.86478741    -0.09490
C2728       C  0.28235211  0.68262323  0.85197773     0.06710
C2729       C  0.26409231  0.67328091  0.85473855    -0.03260
C2730       C  0.26094984  0.66151843  0.87110163    -0.07710
C2731       C  0.27583876  0.65861957  0.88474472     0.05820
C2732       C  0.29455253  0.66656153  0.88119624    -0.02730
Br2733     Br  0.31557104  0.66303983  0.89942060    -0.02430
H2734       H  0.31190074  0.68520834  0.86272118     0.09730
H2735       H  0.24652242  0.65554005  0.87376734     0.07750
Br2736     Br  0.24277387  0.67616321  0.83671387    -0.02850
C2737       C  0.37333887  0.65762369  0.78004182    -0.09490
C2738       C  0.38487818  0.66011462  0.76330919     0.06710
C2739       C  0.37755864  0.67093893  0.74755504    -0.03260
C2740       C  0.35949194  0.68017551  0.74915230    -0.07710
C2741       C  0.34849564  0.67939589  0.76659249     0.05820
C2742       C  0.35524004  0.66710737  0.78186217    -0.02730
Br2743     Br  0.34139120  0.66325888  0.80597786    -0.02430
H2744       H  0.37891006  0.64911111  0.79215957     0.09730
H2745       H  0.35472638  0.68908589  0.73698981     0.07750
Br2746     Br  0.39243864  0.67472757  0.72405966    -0.02850
C2747       C  0.57358545  0.73649632  0.89665986    -0.09490
C2748       C  0.58931585  0.74919140  0.89328034     0.06710
C2749       C  0.59291862  0.76441436  0.90666636    -0.03260
C2750       C  0.58058049  0.76681602  0.92294233    -0.07710
C2751       C  0.56428071  0.75451128  0.92580077     0.05820
C2752       C  0.56073361  0.73939876  0.91207721    -0.02730
Br2753     Br  0.53774391  0.72307390  0.91187510    -0.02430
H2754       H  0.57043132  0.72493375  0.88627485     0.09730
H2755       H  0.58371623  0.77835638  0.93332085     0.07750
Br2756     Br  0.61371307  0.78278656  0.90276404    -0.02850
C2757       C  0.38724394  0.77514086  0.70125131    -0.09490
C2758       C  0.38999838  0.75763352  0.69081513     0.06710
C2759       C  0.37542048  0.74313811  0.69147174    -0.03260
C2760       C  0.35898139  0.74584545  0.70312815    -0.07710
C2761       C  0.35660439  0.76283108  0.71439820     0.05820
C2762       C  0.37056207  0.77791924  0.71288519    -0.02730
Br2763     Br  0.36864073  0.80150388  0.72789596    -0.02430
H2764       H  0.39861435  0.78617305  0.70121262     0.09730
H2765       H  0.34826127  0.73419851  0.70393797     0.07750
Br2766     Br  0.37833392  0.71821959  0.67884477    -0.02850
C2767       C  0.52500481  0.65678306  0.91014847    -0.09490
C2768       C  0.50823462  0.65665440  0.89833959     0.06710
C2769       C  0.49074479  0.66453497  0.90566064    -0.03260
C2770       C  0.49056070  0.67351734  0.92403139    -0.07710
C2771       C  0.50777227  0.67522794  0.93520469     0.05820
C2772       C  0.52494965  0.66607721  0.92839737    -0.02730
Br2773     Br  0.54882411  0.66618982  0.94311535    -0.02430
H2774       H  0.53849991  0.65057930  0.90467781     0.09730
H2775       H  0.47719177  0.68043313  0.92891975     0.07750
Br2776     Br  0.46704405  0.66419367  0.89065326    -0.02850
C2777       C  0.46842600  0.73330377  0.74112073    -0.09490
C2778       C  0.48788060  0.73133410  0.73484908     0.06710
C2779       C  0.49142718  0.72989413  0.71459885    -0.03260
C2780       C  0.47623789  0.73287297  0.70135594    -0.07710
C2781       C  0.45664889  0.73443782  0.70754537     0.05820
C2782       C  0.45287977  0.73302092  0.72787836    -0.02730
Br2783     Br  0.42754858  0.72767199  0.73890071    -0.02430
H2784       H  0.46517705  0.73433971  0.75654532     0.09730
H2785       H  0.48010076  0.73376608  0.68608721     0.07750
Br2786     Br  0.51612957  0.72262402  0.70370722    -0.02850
C2787       C  0.50122325  0.77361363  0.73341476    -0.09490
C2788       C  0.51780852  0.76155038  0.73406384     0.06710
C2789       C  0.53322411  0.76497654  0.72075714    -0.03260
C2790       C  0.53190703  0.78032379  0.70751864    -0.07710
C2791       C  0.51518767  0.79208681  0.70664616     0.05820
C2792       C  0.49954219  0.78839999  0.71954154    -0.02730
Br2793     Br  0.47497891  0.80188252  0.71807324    -0.02430
H2794       H  0.48936291  0.77131169  0.74364064     0.09730
H2795       H  0.54402359  0.78298535  0.69767739     0.07750
Br2796     Br  0.55597625  0.74879854  0.71879490    -0.02850
C2797       C  0.57908577  0.77872932  0.76517611    -0.09490
C2798       C  0.57157662  0.79770220  0.76234008     0.06710
C2799       C  0.55102602  0.79996741  0.76208731    -0.03260
C2800       C  0.53895982  0.78361343  0.76484885    -0.07710
C2801       C  0.54661725  0.76449168  0.76494349     0.05820
C2802       C  0.56711618  0.76229424  0.76481971    -0.02730
Br2803     Br  0.58026204  0.73779408  0.76135921    -0.02430
H2804       H  0.59467241  0.77633929  0.76635980     0.09730
H2805       H  0.52330033  0.78573678  0.76543319     0.07750
Br2806     Br  0.53810018  0.82391592  0.75534918    -0.02850
C2807       C  0.57575688  0.72398969  0.81384177    -0.09490
C2808       C  0.57720409  0.74205551  0.82342079     0.06710
C2809       C  0.56336613  0.75670828  0.81950441    -0.03260
C2810       C  0.54822199  0.75301050  0.80646528    -0.07710
C2811       C  0.54703836  0.73522578  0.79623742     0.05820
C2812       C  0.56094379  0.72047538  0.80021806    -0.02730
Br2813     Br  0.56220934  0.69630692  0.78594630    -0.02430
H2814       H  0.58628339  0.71258620  0.81690875     0.09730
H2815       H  0.53761957  0.76441938  0.80371594     0.07750
Br2816     Br  0.56514163  0.78246819  0.83053133    -0.02850
C2817       C  0.51586105  0.68439524  0.79284880    -0.09490
C2818       C  0.51635412  0.70439384  0.79738518     0.06710
C2819       C  0.51418616  0.70982164  0.81713489    -0.03260
C2820       C  0.51457247  0.69551317  0.83178937    -0.07710
C2821       C  0.51377556  0.67533820  0.82725793     0.05820
C2822       C  0.51245201  0.67028009  0.80714197    -0.02730
Br2823     Br  0.50191134  0.64604514  0.79732455    -0.02430
H2824       H  0.51676968  0.67974508  0.77778359     0.09730
H2825       H  0.51480967  0.70059029  0.84670435     0.07750
Br2826     Br  0.50784780  0.73598867  0.82489908    -0.02850
C2827       C  0.47303732  0.70435076  0.78074722    -0.09490
C2828       C  0.48754451  0.70313402  0.76626919     0.06710
C2829       C  0.48661565  0.68806063  0.75234478    -0.03260
C2830       C  0.47068030  0.67546363  0.75212002    -0.07710
C2831       C  0.45593879  0.67671054  0.76636268     0.05820
C2832       C  0.45743396  0.69110618  0.78107559    -0.02730
Br2833     Br  0.43959507  0.69256943  0.80264831    -0.02430
H2834       H  0.47392396  0.71563802  0.79182092     0.09730
H2835       H  0.47002300  0.66433133  0.74087542     0.07750
Br2836     Br  0.50756992  0.68282112  0.73453471    -0.02850
C2837       C  0.58704609  0.89618097  0.78539302    -0.09490
C2838       C  0.57574820  0.90439664  0.77029366     0.06710
C2839       C  0.57545933  0.89497194  0.75188309    -0.03260
C2840       C  0.58450655  0.87686946  0.74951220    -0.07710
C2841       C  0.59412675  0.86781486  0.76509139     0.05820
C2842       C  0.59616820  0.87793268  0.78289524    -0.02730
Br2843     Br  0.60999163  0.86666706  0.80445258    -0.02430
H2844       H  0.58752194  0.90315518  0.79960085     0.09730
H2845       H  0.58309128  0.86927981  0.73567231     0.07750
Br2846     Br  0.56211363  0.90551707  0.72954427    -0.02850
C2847       C  0.48564599  0.86349974  0.70136517    -0.09490
C2848       C  0.50330763  0.86162534  0.69091591     0.06710
C2849       C  0.51678312  0.87719307  0.69112607    -0.03260
C2850       C  0.51309183  0.89354640  0.70275306    -0.07710
C2851       C  0.49625185  0.89462411  0.71437576     0.05820
C2852       C  0.48210296  0.87983961  0.71315533    -0.02730
Br2853     Br  0.45887175  0.88050051  0.72879596    -0.02430
H2854       H  0.47522479  0.85156264  0.70144059     0.09730
H2855       H  0.52401148  0.90499382  0.70364930     0.07750
Br2856     Br  0.54162326  0.87585607  0.67816003    -0.02850
C2857       C  0.40057685  0.05762372  0.75606822    -0.09490
C2858       C  0.39291619  0.06704109  0.77248109     0.06710
C2859       C  0.40247260  0.06510604  0.79061684    -0.03260
C2860       C  0.41868041  0.05265348  0.79236143    -0.07710
C2861       C  0.42526458  0.04183344  0.77620195     0.05820
C2862       C  0.41656923  0.04516697  0.75770901    -0.02730
Br2863     Br  0.42551297  0.03312800  0.73392832    -0.02430
H2864       H  0.39326861  0.05901532  0.74208379     0.09730
H2865       H  0.42540659  0.05060335  0.80653922     0.07750
Br2866     Br  0.39269991  0.07776286  0.81361801    -0.02850
C2867       C  0.21042466  0.84241729  0.79740004    -0.09490
C2868       C  0.21005843  0.82673105  0.78428288     0.06710
C2869       C  0.19745730  0.82745747  0.76794376    -0.03260
C2870       C  0.18715112  0.84452955  0.76375094    -0.07710
C2871       C  0.18910143  0.86097693  0.77572199     0.05820
C2872       C  0.19997763  0.85951042  0.79325003    -0.02730
Br2873     Br  0.20163935  0.88077245  0.81150005    -0.02430
H2874       H  0.21972285  0.84184822  0.81020015     0.09730
H2875       H  0.17866558  0.84537596  0.75041121     0.07750
Br2876     Br  0.19445228  0.80571641  0.75039586    -0.02850
C2877       C  0.40060153  0.96625465  0.69564463    -0.09490
C2878       C  0.39624676  0.98409253  0.68655950     0.06710
C2879       C  0.41091127  0.99852054  0.68520502    -0.03260
C2880       C  0.42914656  0.99541225  0.69403133    -0.07710
C2881       C  0.43311305  0.97792702  0.70395213     0.05820
C2882       C  0.41882139  0.96308247  0.70429810    -0.02730
Br2883     Br  0.42239879  0.93933223  0.71880544    -0.02430
H2884       H  0.38937020  0.95515114  0.69696517     0.09730
H2885       H  0.43989084  0.00705295  0.69402524     0.07750
Br2886     Br  0.40606587  0.02344136  0.67339408    -0.02850
C2887       C  0.25528284  0.85639443  0.69982730    -0.09490
C2888       C  0.27048365  0.86025515  0.68679381     0.06710
C2889       C  0.28466384  0.84587061  0.68322189    -0.03260
C2890       C  0.28400018  0.82822854  0.69368384    -0.07710
C2891       C  0.26936067  0.82481039  0.70781281     0.05820
C2892       C  0.25467638  0.83920740  0.71053790    -0.02730
Br2893     Br  0.23458279  0.83845424  0.73021057    -0.02430
H2894       H  0.24428699  0.86747159  0.70252182     0.09730
H2895       H  0.29544952  0.81756246  0.69138234     0.07750
Br2896     Br  0.30582052  0.85035406  0.66543270    -0.02850
C2897       C  0.29740562  0.00568951  0.72189539    -0.09490
C2898       C  0.29620683  0.99033466  0.73533656     0.06710
C2899       C  0.31112941  0.97618173  0.73563571    -0.03260
C2900       C  0.32611865  0.97690082  0.72170125    -0.07710
C2901       C  0.32687725  0.99204452  0.70784187     0.05820
C2902       C  0.31270663  0.00696987  0.70860132    -0.02730
Br2903     Br  0.31393371  0.03015741  0.69279804    -0.02430
H2904       H  0.28626064  0.01678281  0.72162617     0.09730
H2905       H  0.33710382  0.96552543  0.72160217     0.07750
Br2906     Br  0.31213223  0.95623475  0.75526494    -0.02850
C2907       C  0.26664376  0.94025426  0.73790880    -0.09490
C2908       C  0.26569285  0.96002663  0.73281069     0.06710
C2909       C  0.26342356  0.96476908  0.71292488    -0.03260
C2910       C  0.26477307  0.95012336  0.69865316    -0.07710
C2911       C  0.26521410  0.93008500  0.70372151     0.05820
C2912       C  0.26422362  0.92553554  0.72399840    -0.02730
Br2913     Br  0.25520925  0.90103800  0.73459338    -0.02430
H2914       H  0.26769430  0.93618096  0.75309228     0.09730
H2915       H  0.26473205  0.95479134  0.68361804     0.07750
Br2916     Br  0.25573935  0.99035471  0.70452372    -0.02850
C2917       C  0.22179709  0.95926239  0.74768627    -0.09490
C2918       C  0.23557054  0.95886528  0.76281862     0.06710
C2919       C  0.23556814  0.94312109  0.77599919    -0.03260
C2920       C  0.22094180  0.92909151  0.77494894    -0.07710
C2921       C  0.20721065  0.92916328  0.75968812     0.05820
C2922       C  0.20819471  0.94418558  0.74552105    -0.02730
Br2923     Br  0.19330681  0.94400288  0.72175500    -0.02430
H2924       H  0.22231605  0.97086904  0.73694417     0.09730
H2925       H  0.22077177  0.91769032  0.78589511     0.07750
Br2926     Br  0.25667359  0.93802629  0.79360157    -0.02850
C2927       C  0.21554467  0.99241680  0.78928685    -0.09490
C2928       C  0.23475686  0.98734363  0.79415168     0.06710
C2929       C  0.23884475  0.98178741  0.81354518    -0.03260
C2930       C  0.22364822  0.98023800  0.82712027    -0.07710
C2931       C  0.20444276  0.98638679  0.82272782     0.05820
C2932       C  0.20084120  0.99339438  0.80349361    -0.02730
Br2933     Br  0.17775309  0.00738735  0.79573366    -0.02430
H2934       H  0.21226601  0.99694784  0.77448698     0.09730
H2935       H  0.22722375  0.97443254  0.84135089     0.07750
Br2936     Br  0.26478906  0.97645620  0.82281299    -0.02850
C2937       C  0.27842366  0.01967154  0.80766752    -0.09490
C2938       C  0.26319602  0.01925868  0.79398736     0.06710
C2939       C  0.24844338  0.03354695  0.79503214    -0.03260
C2940       C  0.24862648  0.04712860  0.81025701    -0.07710
C2941       C  0.26404636  0.04765309  0.82385532     0.05820
C2942       C  0.27943789  0.03409690  0.82195374    -0.02730
Br2943     Br  0.30323668  0.03548199  0.83675917    -0.02430
H2944       H  0.28988280  0.00883773  0.80702940     0.09730
H2945       H  0.23678531  0.05756638  0.81123984     0.07750
Br2946     Br  0.22849779  0.03624579  0.77554354    -0.02850
C2947       C  0.31090042  0.01641426  0.77516238    -0.09490
C2948       C  0.29368806  0.02029196  0.76486331     0.06710
C2949       C  0.29094338  0.03885691  0.75652724    -0.03260
C2950       C  0.30569859  0.05290595  0.75797756    -0.07710
C2951       C  0.32273192  0.04943755  0.76901998     0.05820
C2952       C  0.32476855  0.03104319  0.77835489    -0.02730
Br2953     Br  0.34438510  0.02534926  0.79767177    -0.02430
H2954       H  0.31291445  0.00222754  0.78187622     0.09730
H2955       H  0.30369285  0.06661995  0.75039860     0.07750
Br2956     Br  0.26751604  0.04578041  0.74281277    -0.02850
C2957       C  0.23366755  0.11882971  0.83407311    -0.09490
C2958       C  0.25194859  0.11615045  0.84320940     0.06710
C2959       C  0.26630255  0.13074364  0.84120845    -0.03260
C2960       C  0.26285200  0.14676257  0.82900991    -0.07710
C2961       C  0.24517785  0.14866297  0.81872720     0.05820
C2962       C  0.23019615  0.13496886  0.82191291    -0.02730
Br2963     Br  0.20585048  0.13642934  0.80812381    -0.02430
H2964       H  0.22262029  0.10752434  0.83517284     0.09730
H2965       H  0.27448629  0.15726331  0.82666724     0.07750
Br2966     Br  0.29179565  0.12813995  0.85259860    -0.02850
C2967       C  0.33312149  0.15240317  0.77550039    -0.09490
C2968       C  0.32310919  0.15559406  0.75786607     0.06710
C2969       C  0.32332738  0.14098821  0.74335930    -0.03260
C2970       C  0.33266505  0.12323360  0.74695617    -0.07710
C2971       C  0.34191686  0.11963622  0.76489239     0.05820
C2972       C  0.34272536  0.13461760  0.77898944    -0.02730
Br2973     Br  0.35523578  0.13077302  0.80374244    -0.02430
H2974       H  0.33277149  0.16342394  0.78686256     0.09730
H2975       H  0.33180298  0.11173779  0.73608198     0.07750
Br2976     Br  0.30884621  0.14351919  0.71943424    -0.02850
C2977       C  0.14647792  0.31170576  0.73528997    -0.09490
C2978       C  0.14100133  0.31618115  0.75461766     0.06710
C2979       C  0.15316931  0.31031873  0.77009692    -0.03260
C2980       C  0.16975610  0.29922853  0.76628184    -0.07710
C2981       C  0.17448678  0.29341089  0.74721014     0.05820
C2982       C  0.16331604  0.30053186  0.73148042    -0.02730
Br2983     Br  0.16930539  0.29368916  0.70499851    -0.02430
H2984       H  0.13698021  0.31577632  0.72330859     0.09730
H2985       H  0.17839319  0.29404161  0.77849745     0.07750
Br2986     Br  0.14611303  0.31426532  0.79700439    -0.02850
C2987       C  0.14326602  0.24475912  0.82374699    -0.09490
C2988       C  0.14047362  0.23437493  0.84112397     0.06710
C2989       C  0.15636400  0.22351592  0.84866310    -0.03260
C2990       C  0.17429413  0.22299838  0.83846486    -0.07710
C2991       C  0.17658754  0.23255313  0.82035495     0.05820
C2992       C  0.16040726  0.24316734  0.81296736    -0.02730
Br2993     Br  0.15846903  0.25324879  0.78696759    -0.02430
H2994       H  0.13134907  0.25322677  0.81767449     0.09730
H2995       H  0.18620511  0.21442344  0.84435146     0.07750
Br2996     Br  0.15402185  0.20769512  0.87165788    -0.02850
C2997       C  0.98877386  0.22595327  0.71359995    -0.09490
C2998       C  0.98747377  0.23790781  0.73020512     0.06710
C2999       C  0.97120130  0.25043230  0.73216194    -0.03260
C3000       C  0.95700028  0.25115688  0.71743182    -0.07710
C3001       C  0.95814269  0.23906777  0.70084574     0.05820
C3002       C  0.97420317  0.22615835  0.69918322    -0.02730
Br3003     Br  0.97607665  0.20689706  0.67885562    -0.02430
H3004       H  0.00080334  0.21576488  0.71228115     0.09730
H3005       H  0.94468118  0.26091901  0.71920787     0.07750
Br3006     Br  0.96629496  0.26524635  0.75549265    -0.02850
C3007       C  0.01042293  0.28300791  0.73842398    -0.09490
C3008       C  0.02015747  0.26536529  0.73473219     0.06710
C3009       C  0.03302811  0.26431529  0.71885141    -0.03260
C3010       C  0.03669048  0.28092381  0.70761206    -0.07710
C3011       C  0.02606360  0.29839433  0.71040345     0.05820
C3012       C  0.01256030  0.29915059  0.72605861    -0.02730
Br3013     Br  0.99503240  0.32058666  0.73053706    -0.02430
H3014       H  0.00101829  0.28428275  0.75099193     0.09730
H3015       H  0.04725145  0.27975508  0.69589509     0.07750
Br3016     Br  0.04462758  0.24011484  0.71090750    -0.02850
C3017       C  0.96516236  0.21024138  0.75962959    -0.09490
C3018       C  0.98453397  0.20457195  0.75648158     0.06710
C3019       C  0.98829019  0.18509728  0.75128337    -0.03260
C3020       C  0.97356574  0.17106859  0.75319873    -0.07710
C3021       C  0.95404425  0.17647227  0.75733152     0.05820
C3022       C  0.94986732  0.19679412  0.75822441    -0.02730
Br3023     Br  0.92432456  0.20790850  0.75423316    -0.02430
H3024       H  0.96177289  0.22530873  0.76261691     0.09730
H3025       H  0.97780852  0.15602880  0.75130135     0.07750
Br3026     Br  0.01265378  0.17733405  0.73979946    -0.02850
C3027       C  0.08058028  0.27289398  0.76602043    -0.09490
C3028       C  0.07442005  0.29213228  0.76998213     0.06710
C3029       C  0.05400871  0.29532184  0.77258444    -0.03260
C3030       C  0.04116161  0.27948112  0.77268982    -0.07710
C3031       C  0.04724391  0.26093541  0.76671648     0.05820
C3032       C  0.06716837  0.25790945  0.76278157    -0.02730
Br3033     Br  0.07696876  0.23508087  0.75018167    -0.02430
H3034       H  0.09587100  0.26940958  0.76429727     0.09730
H3035       H  0.02584183  0.28199844  0.77572367     0.07750
Br3036     Br  0.04124008  0.32032519  0.77237856    -0.02850
C3037       C  0.02155889  0.18400550  0.78807567    -0.09490
C3038       C  0.01094818  0.20131743  0.78931828     0.06710
C3039       C  0.99815566  0.20408769  0.80512245    -0.03260
C3040       C  0.99667225  0.18970881  0.81959134    -0.07710
C3041       C  0.00868965  0.17297855  0.81914331     0.05820
C3042       C  0.02161826  0.17051933  0.80320558    -0.02730
Br3043     Br  0.04198132  0.15113751  0.80202565    -0.02430
H3044       H  0.03064065  0.18129471  0.77558836     0.09730
H3045       H  0.98650524  0.19193161  0.83150298     0.07750
Br3046     Br  0.98296906  0.22746161  0.80774226    -0.02850
C3047       C  0.04088093  0.24257037  0.80906281    -0.09490
C3048       C  0.04339309  0.22864231  0.79415455     0.06710
C3049       C  0.05881644  0.21497901  0.79605562    -0.03260
C3050       C  0.07097024  0.21548690  0.81248044    -0.07710
C3051       C  0.06915406  0.23003726  0.82685036     0.05820
C3052       C  0.05377261  0.24369927  0.82500004    -0.02730
Br3053     Br  0.05080040  0.26558654  0.84228648    -0.02430
H3054       H  0.02931508  0.25328887  0.80778058     0.09730
H3055       H  0.08266638  0.20488733  0.81354664     0.07750
Br3056     Br  0.06597773  0.19632280  0.77639092    -0.02850
C3057       C  0.93930267  0.07301848  0.75027685    -0.09490
C3058       C  0.95728443  0.07086849  0.76022696     0.06710
C3059       C  0.96409513  0.08690226  0.77155367    -0.03260
C3060       C  0.95329744  0.10400304  0.77269328    -0.07710
C3061       C  0.93612445  0.10652635  0.76201126     0.05820
C3062       C  0.92878903  0.09074607  0.75101083    -0.02730
Br3063     Br  0.90536515  0.09324611  0.73590607    -0.02430
H3064       H  0.93372524  0.06116563  0.74138007     0.09730
H3065       H  0.95908675  0.11611875  0.78115064     0.07750
Br3066     Br  0.98909820  0.08865173  0.78402360    -0.02850
C3067       C  0.03979327  0.10305203  0.83760863    -0.09490
C3068       C  0.02035211  0.10630356  0.84351907     0.06710
C3069       C  0.00612182  0.09206314  0.83961930    -0.03260
C3070       C  0.01107926  0.07556672  0.82873638    -0.07710
C3071       C  0.03005646  0.07313351  0.82128731     0.05820
C3072       C  0.04474083  0.08651999  0.82651872    -0.02730
Br3073     Br  0.07091038  0.08408038  0.81684426    -0.02430
H3074       H  0.05076163  0.11419253  0.84020318     0.09730
H3075       H  0.99967293  0.06527555  0.82481659     0.07750
Br3076     Br  0.97923304  0.09588299  0.84656230    -0.02850
C3077       C  0.10868901  0.00704675  0.82976067    -0.09490
C3078       C  0.09674356  0.99058856  0.82712639     0.06710
C3079       C  0.10305579  0.97234526  0.83422365    -0.03260
C3080       C  0.12179492  0.97046740  0.84230588    -0.07710
C3081       C  0.13425488  0.98670232  0.84346982     0.05820
C3082       C  0.12735643  0.00520439  0.83778887    -0.02730
Br3083     Br  0.14350360  0.02812075  0.83950241    -0.02430
H3084       H  0.10406356  0.02115038  0.82427538     0.09730
H3085       H  0.12687762  0.95626147  0.84704479     0.07750
Br3086     Br  0.08642206  0.94984653  0.83331514    -0.02850
C3087       C  0.12520853  0.91040119  0.76724243    -0.09490
C3088       C  0.13819341  0.90858891  0.75158676     0.06710
C3089       C  0.13314375  0.91660508  0.73326170    -0.03260
C3090       C  0.11637414  0.92818465  0.73145193    -0.07710
C3091       C  0.10457202  0.93170586  0.74777340     0.05820
C3092       C  0.10843992  0.92180622  0.76540463    -0.02730
Br3093     Br  0.09152775  0.92402321  0.78761536    -0.02430
H3094       H  0.12884728  0.90418151  0.78133354     0.09730
H3095       H  0.11322664  0.93532319  0.71769055     0.07750
Br3096     Br  0.14935284  0.91290813  0.71070996    -0.02850
C3097       C  0.86115093  0.17817780  0.76591552    -0.09490
C3098       C  0.85667517  0.18579020  0.78440275     0.06710
C3099       C  0.86703253  0.17903756  0.80085238    -0.03260
C3100       C  0.88281319  0.16612236  0.79826907    -0.07710
C3101       C  0.88782392  0.15932754  0.77951809     0.05820
C3102       C  0.87639019  0.16497144  0.76340675    -0.02730
Br3103     Br  0.88254552  0.15690239  0.73722345    -0.02430
H3104       H  0.85308342  0.18302157  0.75317816     0.09730
H3105       H  0.89182954  0.16226543  0.81068531     0.07750
Br3106     Br  0.86138580  0.18847567  0.82660931    -0.02850
C3107       C  0.86131474  0.22566830  0.70683151    -0.09490
C3108       C  0.84957403  0.24236149  0.70417170     0.06710
C3109       C  0.85582872  0.25661818  0.69051706    -0.03260
C3110       C  0.87410789  0.25472650  0.68135834    -0.07710
C3111       C  0.88644084  0.23888530  0.68550156     0.05820
C3112       C  0.87950618  0.22386565  0.69770888    -0.02730
Br3113     Br  0.89447504  0.20068907  0.70266921    -0.02430
H3114       H  0.85675003  0.21426513  0.71681458     0.09730
H3115       H  0.87919783  0.26627032  0.67179890     0.07750
Br3116     Br  0.84130198  0.27992244  0.68492956    -0.02850
C3117       C  0.79319708  0.35309030  0.69002633    -0.09490
C3118       C  0.77417925  0.36034899  0.68720239     0.06710
C3119       C  0.75824058  0.35001278  0.69494277    -0.03260
C3120       C  0.76147205  0.33316705  0.70592750    -0.07710
C3121       C  0.78051433  0.32656743  0.71001745     0.05820
C3122       C  0.79647882  0.33630124  0.70138423    -0.02730
Br3123     Br  0.82293489  0.32870543  0.70644492    -0.02430
H3124       H  0.80559258  0.36123585  0.68447672     0.09730
H3125       H  0.74897362  0.32562488  0.71207305     0.07750
Br3126     Br  0.73191698  0.35932161  0.69229082    -0.02850
C3127       C  0.69070149  0.32554241  0.78100368    -0.09490
C3128       C  0.70885124  0.32274462  0.77154421     0.06710
C3129       C  0.71682497  0.33868594  0.76114339    -0.03260
C3130       C  0.70626635  0.35572310  0.75876763    -0.07710
C3131       C  0.68902934  0.35921594  0.76911352     0.05820
C3132       C  0.68100972  0.34379336  0.78028172    -0.02730
Br3133     Br  0.65797278  0.34720969  0.79581417    -0.02430
H3134       H  0.68442529  0.31382458  0.78958293     0.09730
H3135       H  0.71252045  0.36713773  0.74981260     0.07750
Br3136     Br  0.74355140  0.34086440  0.75342573    -0.02850
C3137       C  0.78064719  0.44253408  0.73552004    -0.09490
C3138       C  0.76866647  0.45898056  0.73397567     0.06710
C3139       C  0.75752913  0.46152250  0.71686921    -0.03260
C3140       C  0.75799812  0.44724966  0.70207961    -0.07710
C3141       C  0.77017349  0.43071817  0.70367058     0.05820
C3142       C  0.78222659  0.42901866  0.72038770    -0.02730
Br3143     Br  0.80255683  0.40980177  0.72304871    -0.02430
H3144       H  0.78880831  0.44008497  0.74877118     0.09730
H3145       H  0.74875895  0.44906946  0.68936782     0.07750
Br3146     Br  0.74183192  0.48431843  0.71299405    -0.02850
C3147       C  0.79529583  0.50266410  0.72093256    -0.09490
C3148       C  0.79854348  0.48849515  0.73533483     0.06710
C3149       C  0.81623063  0.47806715  0.73541131    -0.03260
C3150       C  0.83011200  0.48176972  0.72107544    -0.07710
C3151       C  0.82748024  0.49672397  0.70722653     0.05820
C3152       C  0.80989867  0.50755657  0.70756843    -0.02730
Br3153     Br  0.80552409  0.53038531  0.69183734    -0.02430
H3154       H  0.78181953  0.51094749  0.72101487     0.09730
H3155       H  0.84309102  0.47274981  0.72085602     0.11590
Br3156     Br  0.82288759  0.45900322  0.75478406    -0.02850
C3157       C  0.72811261  0.50469986  0.79631173    -0.09490
C3158       C  0.73912396  0.48744877  0.79509465     0.06710
C3159       C  0.73493056  0.47188948  0.80787515    -0.03260
C3160       C  0.71917116  0.47333252  0.82066632    -0.07710
C3161       C  0.70804976  0.49053619  0.82183374     0.05820
C3162       C  0.71289962  0.50649016  0.80974657    -0.02730
Br3163     Br  0.70086063  0.53166044  0.81220977    -0.02430
H3164       H  0.73177062  0.51701810  0.78706782     0.09730
H3165       H  0.71598882  0.46115138  0.83025361     0.07750
Br3166     Br  0.75171709  0.44959002  0.81036804    -0.02850
C3167       C  0.74281563  0.43864793  0.76385539    -0.09490
C3168       C  0.73791886  0.45851722  0.76355689     0.06710
C3169       C  0.71803582  0.46347729  0.76139782    -0.03260
C3170       C  0.70365537  0.44883702  0.76191732    -0.07710
C3171       C  0.70855363  0.42874955  0.76179435     0.05820
C3172       C  0.72877737  0.42404289  0.76128326    -0.02730
Br3173     Br  0.73924036  0.39909545  0.75382468    -0.02430
H3174       H  0.75793159  0.43438407  0.76539125     0.09730
H3175       H  0.68859333  0.45351240  0.76201595     0.07750
Br3176     Br  0.70957508  0.48958056  0.75583148    -0.02850
C3177       C  0.79581302  0.53256083  0.75422247    -0.09490
C3178       C  0.80046825  0.51617871  0.76557606     0.06710
C3179       C  0.81971803  0.51382914  0.77235650    -0.03260
C3180       C  0.83374255  0.52818973  0.76832725    -0.07710
C3181       C  0.82911111  0.54490669  0.75716084     0.05820
C3182       C  0.80995045  0.54650335  0.74944317    -0.02730
Br3183     Br  0.80220557  0.56620245  0.73098709    -0.02430
H3184       H  0.78117404  0.53406190  0.74837464     0.09730
H3185       H  0.84795628  0.52676696  0.77510016     0.07750
Br3186     Br  0.82640461  0.49358398  0.79048734    -0.02850
C3187       C  0.76682444  0.54671992  0.81010522    -0.09490
C3188       C  0.75878574  0.54089197  0.82807911     0.06710
C3189       C  0.75909114  0.52069617  0.83272552    -0.03260
C3190       C  0.76695902  0.50725866  0.81929049    -0.07710
C3191       C  0.77365822  0.51344528  0.80080910     0.05820
C3192       C  0.77775662  0.53361717  0.79911091    -0.02730
Br3193     Br  0.80411223  0.54213157  0.80378270    -0.02430
H3194       H  0.76913606  0.56213504  0.80730448     0.09730
H3195       H  0.76601633  0.49183616  0.82252590     0.07750
Br3196     Br  0.74618658  0.51007948  0.85527235    -0.02850
C3197       C  0.68902695  0.96821982  0.40279896    -0.09490
C3198       C  0.68442809  0.98730239  0.39691324     0.06710
C3199       C  0.68814363  0.00294033  0.40982403    -0.03260
C3200       C  0.69755008  0.99949615  0.42765115    -0.07710
C3201       C  0.70319834  0.98056593  0.43305640     0.05820
C3202       C  0.69825935  0.96473687  0.42075036    -0.02730
Br3203     Br  0.70631579  0.93846677  0.42636113    -0.02430
H3204       H  0.68651534  0.95613328  0.39287024     0.09730
H3205       H  0.70151638  0.01179775  0.43681207     0.07750
Br3206     Br  0.68296037  0.02955420  0.40273671    -0.02850
C3207       C  0.76201948  0.05899900  0.40075560    -0.09490
C3208       C  0.77847789  0.06306989  0.38937085     0.06710
C3209       C  0.79693109  0.05609482  0.39526761    -0.03260
C3210       C  0.79852826  0.04427551  0.41190368    -0.07710
C3211       C  0.78176129  0.03897111  0.42240655     0.05820
C3212       C  0.76350038  0.04699384  0.41712943    -0.02730
Br3213     Br  0.73995243  0.04161399  0.43148799    -0.02430
H3214       H  0.74776743  0.06416143  0.39618468     0.09730
H3215       H  0.81262472  0.03833424  0.41594297     0.07750
Br3216     Br  0.81995710  0.06128463  0.38015664    -0.02850
C3217       C  0.72952373  0.94445072  0.28322630    -0.09490
C3218       C  0.72978953  0.95710805  0.26706527     0.06710
C3219       C  0.71494237  0.95510171  0.25274116    -0.03260
C3220       C  0.70124881  0.94002426  0.25423065    -0.07710
C3221       C  0.70153333  0.92692509  0.26993981     0.05820
C3222       C  0.71559866  0.92951148  0.28479131    -0.02730
Br3223     Br  0.71594761  0.91371249  0.30793161    -0.02430
H3224       H  0.74045600  0.94601761  0.29457629     0.09730
H3225       H  0.69025574  0.93846993  0.24293014     0.07750
Br3226     Br  0.71125370  0.97276672  0.23130660    -0.02850
C3227       C  0.74011703  0.98763474  0.31530487    -0.09490
C3228       C  0.73385219  0.98886210  0.29580734     0.06710
C3229       C  0.71421176  0.99333699  0.29219669    -0.03260
C3230       C  0.70077976  0.99325965  0.30740312    -0.07710
C3231       C  0.70678794  0.99307892  0.32714371     0.05820
C3232       C  0.72720568  0.99129767  0.33083173    -0.02730
Br3233     Br  0.73946756  0.99692714  0.35549493    -0.02430
H3234       H  0.75545459  0.98529582  0.31840679     0.09730
H3235       H  0.68560160  0.99438516  0.30331595     0.07750
Br3236     Br  0.70550417  0.00390258  0.26789767    -0.02850
C3237       C  0.76341518  0.91991145  0.22606528    -0.09490
C3238       C  0.75572960  0.92411799  0.20735685     0.06710
C3239       C  0.74860780  0.94326800  0.20393405    -0.03260
C3240       C  0.75234787  0.95794169  0.21750626    -0.07710
C3241       C  0.75906876  0.95341177  0.23621637     0.05820
C3242       C  0.76388960  0.93401440  0.24075491    -0.02730
Br3243     Br  0.77147393  0.92587187  0.26650893    -0.02430
H3244       H  0.76928303  0.90573051  0.22961300     0.09730
H3245       H  0.74847905  0.97287277  0.21400598     0.07750
Br3246     Br  0.73084074  0.95018540  0.18321435    -0.02850
C3247       C  0.75153841  0.03082694  0.29353545    -0.09490
C3248       C  0.76611427  0.01642476  0.29252640     0.06710
C3249       C  0.78192465  0.01736350  0.30567314    -0.03260
C3250       C  0.78345934  0.03303289  0.31869764    -0.07710
C3251       C  0.76897004  0.04757427  0.31960807     0.05820
C3252       C  0.75269461  0.04615614  0.30701377    -0.02730
Br3253     Br  0.73070661  0.06346457  0.30867812    -0.02430
H3254       H  0.73899653  0.02995926  0.28393319     0.09730
H3255       H  0.79578096  0.03353359  0.32863153     0.07750
Br3256     Br  0.80065207  0.99664504  0.30788658    -0.02850
C3257       C  0.81320579  0.00670675  0.26095660    -0.09490
C3258       C  0.79369333  0.01289875  0.26011079     0.06710
C3259       C  0.78968879  0.03240451  0.25533728    -0.03260
C3260       C  0.80494564  0.04580947  0.25430838    -0.07710
C3261       C  0.82466445  0.03978368  0.25537572     0.05820
C3262       C  0.82854406  0.01957542  0.25717327    -0.02730
Br3263     Br  0.85361986  0.00797490  0.25201551    -0.02430
H3264       H  0.81651341  0.99156325  0.26380677     0.09730
H3265       H  0.80102795  0.06098998  0.25264075     0.07750
Br3266     Br  0.76400271  0.04120616  0.24833351    -0.02850
C3267       C  0.78845767  0.99612779  0.21726454    -0.09490
C3268       C  0.79005688  0.98196289  0.23199763     0.06710
C3269       C  0.80622087  0.96917829  0.23163814    -0.03260
C3270       C  0.82013027  0.97058797  0.21671430    -0.07710
C3271       C  0.81893265  0.98516817  0.20232254     0.05820
C3272       C  0.80286789  0.99815531  0.20284257    -0.02730
Br3273     Br  0.80089121  0.02047176  0.18602315    -0.02430
H3274       H  0.77647891  0.00644881  0.21770620     0.09730
H3275       H  0.83241029  0.96061724  0.21679132     0.07750
Br3276     Br  0.81178785  0.95138080  0.25242563    -0.02850
C3277       C  0.84263960  0.12260308  0.23898821    -0.09490
C3278       C  0.83796189  0.10849013  0.25307762     0.06710
C3279       C  0.82116249  0.11102917  0.26464969    -0.03260
C3280       C  0.80907829  0.12702866  0.26170056    -0.07710
C3281       C  0.81324136  0.14121614  0.24740086     0.05820
C3282       C  0.83056515  0.13902936  0.23616086    -0.02730
Br3283     Br  0.83849384  0.15733187  0.21644979    -0.02430
H3284       H  0.85536921  0.12055643  0.22981023     0.09730
H3285       H  0.79629818  0.12829889  0.27094811     0.07750
Br3286     Br  0.81354455  0.09258960  0.28446761    -0.02850
C3287       C  0.77796789  0.14659598  0.32522472    -0.09490
C3288       C  0.75902685  0.15460116  0.32524843     0.06710
C3289       C  0.74403875  0.14458040  0.33534172    -0.03260
C3290       C  0.74779164  0.12609534  0.34340994    -0.07710
C3291       C  0.76633306  0.11750699  0.34174272     0.05820
C3292       C  0.78167516  0.12827608  0.33339500    -0.02730
Br3293     Br  0.80766082  0.11793829  0.33180610    -0.02430
H3294       H  0.78972444  0.15409045  0.31770625     0.09730
H3295       H  0.73592214  0.11790499  0.34995563     0.07750
Br3296     Br  0.71770660  0.15410889  0.33648998    -0.02850
C3297       C  0.77425235  0.30706307  0.15071213    -0.09490
C3298       C  0.75787879  0.31518223  0.14166879     0.06710
C3299       C  0.73920923  0.31186783  0.14975320    -0.03260
C3300       C  0.73707697  0.29941766  0.16593571    -0.07710
C3301       C  0.75340180  0.28983809  0.17383531     0.05820
C3302       C  0.77219692  0.29447961  0.16656057    -0.02730
Br3303     Br  0.79580956  0.28384717  0.17724585    -0.02430
H3304       H  0.78862907  0.30934611  0.14445567     0.09730
H3305       H  0.72260165  0.29632562  0.17155394     0.07750
Br3306     Br  0.71621133  0.32257880  0.13790897    -0.02850
C3307       C  0.84466777  0.24783779  0.16035545    -0.09490
C3308       C  0.84262291  0.23376984  0.14554407     0.06710
C3309       C  0.83448108  0.21540514  0.15016494    -0.03260
C3310       C  0.82689877  0.21203269  0.16882299    -0.07710
C3311       C  0.82723056  0.22675663  0.18306330     0.05820
C3312       C  0.83700208  0.24441454  0.17906000    -0.02730
Br3313     Br  0.83981559  0.26418161  0.19872460    -0.02430
H3314       H  0.85132323  0.26182997  0.15710859     0.09730
H3315       H  0.81941398  0.19837703  0.17174134     0.07750
Br3316     Br  0.83259255  0.19476595  0.13121065    -0.02850
C3317       C  0.75514567  0.15745195  0.87043727    -0.09490
C3318       C  0.76960714  0.15969644  0.88484427     0.06710
C3319       C  0.78673133  0.17028086  0.88040046    -0.03260
C3320       C  0.78871738  0.17921305  0.86217198    -0.07710
C3321       C  0.77370689  0.17811822  0.84827455     0.05820
C3322       C  0.75701294  0.16678699  0.85227979    -0.02730
Br3323     Br  0.73639028  0.16413523  0.83351465    -0.02430
H3324       H  0.74198147  0.14926160  0.87366546     0.09730
H3325       H  0.80156290  0.18803476  0.85927220     0.07750
Br3326     Br  0.80750148  0.17363215  0.89901678    -0.02850
C3327       C  0.68696251  0.23958539  0.87359963    -0.09490
C3328       C  0.68824033  0.25331882  0.88872214     0.06710
C3329       C  0.70047873  0.26981871  0.88639650    -0.03260
C3330       C  0.71230858  0.27155481  0.86979012    -0.07710
C3331       C  0.71214749  0.25695645  0.85547184     0.05820
C3332       C  0.69889238  0.24125562  0.85709346    -0.02730
Br3333     Br  0.69763447  0.22102088  0.83768645    -0.02430
H3334       H  0.67779835  0.22677625  0.87529428     0.09730
H3335       H  0.72240247  0.28370496  0.86859888     0.07750
Br3336     Br  0.70248006  0.28961875  0.90619997    -0.02850
C3337       C  0.71711577  0.22177670  0.98620962    -0.09490
C3338       C  0.73331219  0.23432938  0.98580736     0.06710
C3339       C  0.73482112  0.24825742  0.97080820    -0.03260
C3340       C  0.71969488  0.25026577  0.95734513    -0.07710
C3341       C  0.70344519  0.23762908  0.95750974     0.05820
C3342       C  0.70257721  0.22282108  0.97189095    -0.02730
Br3343     Br  0.68319374  0.20248660  0.97199397    -0.02430
H3344       H  0.71586029  0.21092916  0.99762362     0.09730
H3345       H  0.72084135  0.26170548  0.94648684     0.07750
Br3346     Br  0.75746257  0.26441525  0.96737951    -0.02850
C3347       C  0.73820274  0.28170228  0.00931527    -0.09490
C3348       C  0.73283729  0.26340315  0.01673749     0.06710
C3349       C  0.71414876  0.26104977  0.02478546    -0.03260
C3350       C  0.70187087  0.27719603  0.02668186    -0.07710
C3351       C  0.70658280  0.29550442  0.01829646     0.05820
C3352       C  0.72493857  0.29723906  0.00875056    -0.02730
Br3353     Br  0.73246775  0.31880616  0.99244389    -0.02430
H3354       H  0.75267473  0.28373876  0.00329913     0.09730
H3355       H  0.68834162  0.27503577  0.03453416     0.07750
Br3356     Br  0.70419083  0.23605181  0.03263713    -0.02850
C3357       C  0.74990008  0.18817299  0.98634350    -0.09490
C3358       C  0.76313800  0.20382409  0.98560613     0.06710
C3359       C  0.77590369  0.20526415  0.96952099    -0.03260
C3360       C  0.77573980  0.19083857  0.95502942    -0.07710
C3361       C  0.76243181  0.17516605  0.95568328     0.05820
C3362       C  0.74908943  0.17420548  0.97141797    -0.02730
Br3363     Br  0.72824862  0.15541527  0.97260023    -0.02430
H3364       H  0.73981471  0.18701309  0.99846111     0.09730
H3365       H  0.78602736  0.19199192  0.94305789     0.07750
Br3366     Br  0.79324885  0.22694905  0.96594552    -0.02850
C3367       C  0.81146231  0.20997578  0.00836594    -0.09490
C3368       C  0.79336210  0.20422587  0.01603996     0.06710
C3369       C  0.79130941  0.18536871  0.02367880    -0.03260
C3370       C  0.80760792  0.17331462  0.02509940    -0.07710
C3371       C  0.82567803  0.17831597  0.01634580     0.05820
C3372       C  0.82711011  0.19685322  0.00716980    -0.02730
Br3373     Br  0.84837609  0.20473658  0.99061759    -0.02430
H3374       H  0.81316615  0.22455381  0.00250087     0.09730
H3375       H  0.80571281  0.15969200  0.03284003     0.07750
Br3376     Br  0.76651879  0.17476467  0.03142593    -0.02850
C3377       C  0.77401559  0.27909997  0.04283486    -0.09490
C3378       C  0.76212363  0.26283340  0.04648501     0.06710
C3379       C  0.75064473  0.26235946  0.06348250    -0.03260
C3380       C  0.75055733  0.27835489  0.07602777    -0.07710
C3381       C  0.76288716  0.29448265  0.07281803     0.05820
C3382       C  0.77519672  0.29445329  0.05620550    -0.02730
Br3383     Br  0.79531426  0.31355026  0.05167916    -0.02430
H3384       H  0.78285184  0.27958816  0.02972160     0.09730
H3385       H  0.74089935  0.27799330  0.08855373     0.07750
Br3386     Br  0.73533295  0.24021629  0.07090897    -0.02850
C3387       C  0.80723000  0.24721202  0.04398854    -0.09490
C3388       C  0.79227450  0.23348729  0.04670720     0.06710
C3389       C  0.79181820  0.22261344  0.06416720    -0.03260
C3390       C  0.80640222  0.22524064  0.07820592    -0.07710
C3391       C  0.82101057  0.23949061  0.07587157     0.05820
C3392       C  0.82090973  0.25099066  0.05867300    -0.02730
Br3393     Br  0.83733359  0.27352124  0.05505177    -0.02430
H3394       H  0.80762870  0.25579892  0.03071759     0.09730
H3395       H  0.80617685  0.21610767  0.09111187     0.07750
Br3396     Br  0.77144340  0.20456623  0.07034783    -0.02850
C3397       C  0.75781537  0.39009232  0.06453354    -0.09490
C3398       C  0.77676925  0.39825171  0.06510597     0.06710
C3399       C  0.79047141  0.39035556  0.07842091    -0.03260
C3400       C  0.78538136  0.37394907  0.08967589    -0.07710
C3401       C  0.76682631  0.36529663  0.08799635     0.05820
C3402       C  0.75285400  0.37383307  0.07567894    -0.02730
Br3403     Br  0.72704137  0.36309554  0.07272843    -0.02430
H3404       H  0.74670747  0.39608501  0.05499066     0.09730
H3405       H  0.79632923  0.36721208  0.09890196     0.07750
Br3406     Br  0.81662937  0.40016554  0.08109786    -0.02850
C3407       C  0.70048864  0.39194538  0.99468088    -0.09490
C3408       C  0.70225429  0.40481922  0.01057823     0.06710
C3409       C  0.69482697  0.39900687  0.02897319    -0.03260
C3410       C  0.68748504  0.38007566  0.03154499    -0.07710
C3411       C  0.68747881  0.36673381  0.01603773     0.05820
C3412       C  0.69328572  0.37299466  0.99731995    -0.02730
Br3413     Br  0.69243651  0.35584813  0.97511854    -0.02430
H3414       H  0.70615193  0.39604293  0.98047830     0.09730
H3415       H  0.68253783  0.37550023  0.04586524     0.07750
Br3416     Br  0.69491618  0.41610199  0.05122944    -0.02850
C3417       C  0.69710150  0.46136012  0.89243109    -0.09490
C3418       C  0.68714662  0.47918395  0.88991670     0.06710
C3419       C  0.68640024  0.49252981  0.90553674    -0.03260
C3420       C  0.69658895  0.48851148  0.92272567    -0.07710
C3421       C  0.70771333  0.47137909  0.92471833     0.05820
C3422       C  0.70740856  0.45738972  0.90965251    -0.02730
Br3423     Br  0.72279069  0.43400287  0.91073499    -0.02430
H3424       H  0.69797607  0.45109232  0.88039959     0.09730
H3425       H  0.69661366  0.49933899  0.93429279     0.07750
Br3426     Br  0.67394996  0.51755606  0.90339342    -0.02850
C3427       C  0.78140640  0.55411808  0.92119385    -0.09490
C3428       C  0.76508559  0.55120430  0.93336601     0.06710
C3429       C  0.74690414  0.55910885  0.92752268    -0.03260
C3430       C  0.74487156  0.56750050  0.90896650    -0.07710
C3431       C  0.76067124  0.56814834  0.89595328     0.05820
C3432       C  0.77929144  0.56236937  0.90257925    -0.02730
Br3433     Br  0.80196469  0.56421360  0.88616383    -0.02430
H3434       H  0.79555748  0.54840717  0.92538189     0.09730
H3435       H  0.73053809  0.57216914  0.90414300     0.07750
Br3436     Br  0.72404391  0.55795705  0.94375222    -0.02850
C3437       C  0.82115367  0.09057056  0.04562493    -0.09490
C3438       C  0.81888460  0.07748980  0.03008871     0.06710
C3439       C  0.83038005  0.07964578  0.01313507    -0.03260
C3440       C  0.84287074  0.09568139  0.01126473    -0.07710
C3441       C  0.84390101  0.10970431  0.02609481     0.05820
C3442       C  0.83348819  0.10674988  0.04366642    -0.02730
Br3443     Br  0.83416790  0.12555894  0.06449772    -0.02430
H3444       H  0.81243211  0.08890039  0.05873089     0.09730
H3445       H  0.85057875  0.09800340  0.99763435     0.07750
Br3446     Br  0.82860066  0.06160497  0.99170326    -0.02850
C3447       C  0.74471356  0.09558543  0.93297007    -0.09490
C3448       C  0.76266133  0.10546559  0.93372183     0.06710
C3449       C  0.77889831  0.09619728  0.94216916    -0.03260
C3450       C  0.77670224  0.07790049  0.95094989    -0.07710
C3451       C  0.75834231  0.06861000  0.95179760     0.05820
C3452       C  0.74237468  0.07731248  0.94195021    -0.02730
Br3453     Br  0.71641535  0.06660096  0.94250543    -0.02430
H3454       H  0.73211721  0.10274440  0.92660572     0.09730
H3455       H  0.78916504  0.07151592  0.95832583     0.07750
Br3456     Br  0.80397373  0.10873889  0.94343484    -0.02850
C3457       C  0.74035778  0.92044166  0.10956090    -0.09490
C3458       C  0.75425599  0.93517020  0.10584764     0.06710
C3459       C  0.77167356  0.93538503  0.11721984    -0.03260
C3460       C  0.77444190  0.92173768  0.13197341    -0.07710
C3461       C  0.75987027  0.90833399  0.13679091     0.05820
C3462       C  0.74289358  0.90733406  0.12517253    -0.02730
Br3463     Br  0.72214302  0.88952526  0.13128176    -0.02430
H3464       H  0.72707999  0.91971111  0.10097067     0.09730
H3465       H  0.78736613  0.92280927  0.14109707     0.07750
Br3466     Br  0.79234606  0.95424863  0.11493539    -0.02850
C3467       C  0.82737376  0.01286228  0.10747364    -0.09490
C3468       C  0.82643263  0.99646683  0.09517568     0.06710
C3469       C  0.83490809  0.97878797  0.10136447    -0.03260
C3470       C  0.84251644  0.97723971  0.12033250    -0.07710
C3471       C  0.84181811  0.99320994  0.13319339     0.05820
C3472       C  0.83493488  0.01132705  0.12638940    -0.02730
Br3473     Br  0.83470402  0.03407357  0.14280089    -0.02430
H3474       H  0.82094486  0.02656874  0.10287574     0.09730
H3475       H  0.84813763  0.96333252  0.12534177     0.07750
Br3476     Br  0.83591269  0.95640324  0.08450227    -0.02850
C3477       C  0.88422654  0.66953681  0.26205541    -0.09490
C3478       C  0.89075765  0.65866165  0.27801532     0.06710
C3479       C  0.88081008  0.66020588  0.29595128    -0.03260
C3480       C  0.86488810  0.67313399  0.29777717    -0.07710
C3481       C  0.85931494  0.68517576  0.28204443     0.05820
C3482       C  0.86902481  0.68284467  0.26389047    -0.02730
Br3483     Br  0.86287503  0.69729960  0.24063064    -0.02430
H3484       H  0.89203596  0.66869192  0.24828751     0.09730
H3485       H  0.85743997  0.67437028  0.31168321     0.07750
Br3486     Br  0.88904140  0.64546894  0.31822864    -0.02850
C3487       C  0.86292926  0.75918621  0.20588772    -0.09490
C3488       C  0.84869127  0.74443742  0.20604143     0.06710
C3489       C  0.85260456  0.72662091  0.19652318    -0.03260
C3490       C  0.87106265  0.72329206  0.18818677    -0.07710
C3491       C  0.88584154  0.73749997  0.18949227     0.05820
C3492       C  0.88140552  0.75583846  0.19781051    -0.02730
Br3493     Br  0.90041829  0.77647177  0.19936819    -0.02430
H3494       H  0.86016101  0.77289122  0.21332972     0.09730
H3495       H  0.87421603  0.70921934  0.18167080     0.07750
Br3496     Br  0.83336022  0.70627017  0.19540068    -0.02850
C3497       C  0.75987939  0.84062432  0.18863560    -0.09490
C3498       C  0.77215611  0.85694546  0.18822484     0.06710
C3499       C  0.78985281  0.85669358  0.19890621    -0.03260
C3500       C  0.79413857  0.84094663  0.21118359    -0.07710
C3501       C  0.78093234  0.82545416  0.21288565     0.05820
C3502       C  0.76416645  0.82490822  0.20090260    -0.02730
Br3503     Br  0.74584940  0.80366954  0.20212591    -0.02430
H3504       H  0.74618438  0.84079655  0.18068892     0.09730
H3505       H  0.80706662  0.84141586  0.22031758     0.07750
Br3506     Br  0.80750593  0.87854362  0.19874879    -0.02850
C3507       C  0.69660040  0.85117220  0.29091521    -0.09490
C3508       C  0.68584963  0.85578312  0.27407936     0.06710
C3509       C  0.68435749  0.84176111  0.25900140    -0.03260
C3510       C  0.69439263  0.82392169  0.26056909    -0.07710
C3511       C  0.70561902  0.81966370  0.27719626     0.05820
C3512       C  0.70640944  0.83335568  0.29256543    -0.02730
Br3513     Br  0.72260939  0.82940421  0.31514414    -0.02430
H3514       H  0.69809692  0.86189122  0.30248923     0.09730
H3515       H  0.69399399  0.81366085  0.24851481     0.07750
Br3516     Br  0.67037037  0.84698709  0.23529300    -0.02850
C3517       C  0.78700833  0.87615212  0.58960679    -0.09490
C3518       C  0.76827119  0.86891395  0.59367183     0.06710
C3519       C  0.75187351  0.88054093  0.58946087    -0.03260
C3520       C  0.75432110  0.89865586  0.58023797    -0.07710
C3521       C  0.77303475  0.90555041  0.57525155     0.05820
C3522       C  0.78952439  0.89429602  0.58047657    -0.02730
Br3523     Br  0.81561605  0.90152623  0.57301132    -0.02430
H3524       H  0.79968385  0.86714614  0.59254543     0.09730
H3525       H  0.74150985  0.90695949  0.57608778     0.07750
Br3526     Br  0.72586234  0.87157731  0.59482590    -0.02850
C3527       C  0.69272602  0.72814945  0.37626893    -0.09490
C3528       C  0.68900327  0.74347277  0.38925119     0.06710
C3529       C  0.69568076  0.76244933  0.38466547    -0.03260
C3530       C  0.70743965  0.76548314  0.36813606    -0.07710
C3531       C  0.71265262  0.74969334  0.35618235     0.05820
C3532       C  0.70435211  0.73114316  0.35978441    -0.02730
Br3533     Br  0.70884471  0.70923387  0.34281936    -0.02430
H3534       H  0.68765416  0.71353182  0.37964109     0.09730
H3535       H  0.71339612  0.77987391  0.36529024     0.07750
Br3536     Br  0.68996153  0.78429985  0.40123359    -0.02850
C3537       C  0.78109675  0.65354423  0.37440217    -0.09490
C3538       C  0.76681602  0.66079246  0.38723447     0.06710
C3539       C  0.75447413  0.67590134  0.38091206    -0.03260
C3540       C  0.75708404  0.68413868  0.36252017    -0.07710
C3541       C  0.77199688  0.67782931  0.34977843     0.05820
C3542       C  0.78382970  0.66191787  0.35578263    -0.02730
Br3543     Br  0.80414874  0.65112773  0.33975733    -0.02430
H3544       H  0.79056191  0.64179006  0.37912719     0.09730
H3545       H  0.74768301  0.69619754  0.35859193     0.07750
Br3546     Br  0.73393239  0.68626785  0.39706315    -0.02850
C3547       C  0.70422855  0.86378191  0.48550155    -0.09490
C3548       C  0.69047771  0.86279965  0.50077064     0.06710
C3549       C  0.68741612  0.87930673  0.51264136    -0.03260
C3550       C  0.69894866  0.89596397  0.50987008    -0.07710
C3551       C  0.71361983  0.89629753  0.49554369     0.05820
C3552       C  0.71594879  0.88029338  0.48298704    -0.02730
Br3553     Br  0.73600824  0.87978853  0.46342255    -0.02430
H3554       H  0.70667263  0.85116466  0.47625680     0.09730
H3555       H  0.69729998  0.90824999  0.51973095     0.07750
Br3556     Br  0.66952183  0.87905545  0.53421581    -0.02850
C3557       C  0.76876047  0.68584724  0.49308910    -0.09490
C3558       C  0.76865983  0.70585732  0.48872474     0.06710
C3559       C  0.77051714  0.71149477  0.46900556    -0.03260
C3560       C  0.76880740  0.69751066  0.45419720    -0.07710
C3561       C  0.76805970  0.67736206  0.45848373     0.05820
C3562       C  0.77004961  0.67176235  0.47835690    -0.02730
Br3563     Br  0.77718830  0.64589996  0.48676507    -0.02430
H3564       H  0.76797715  0.68103911  0.50809487     0.09730
H3565       H  0.76814331  0.70272204  0.43932603     0.07750
Br3566     Br  0.77704744  0.73765012  0.46132487    -0.02850
C3567       C  0.79521183  0.69120992  0.53346277    -0.09490
C3568       C  0.79658377  0.70753722  0.52123678     0.06710
C3569       C  0.81366587  0.71021370  0.51012179    -0.03260
C3570       C  0.82835778  0.69594892  0.51037249    -0.07710
C3571       C  0.82678563  0.67929431  0.52237523     0.05820
C3572       C  0.81032728  0.67761574  0.53474511    -0.02730
Br3573     Br  0.80802876  0.65806506  0.55475877    -0.02430
H3574       H  0.78207959  0.68876790  0.54182163     0.09730
H3575       H  0.84091400  0.69779929  0.50092554     0.07750
Br3576     Br  0.81766865  0.73317137  0.49466967    -0.02850
C3577       C  0.77363305  0.78240075  0.54481145    -0.09490
C3578       C  0.76163596  0.76617986  0.54857301     0.06710
C3579       C  0.75010686  0.76620416  0.56560602    -0.03260
C3580       C  0.75069380  0.78215659  0.57837562    -0.07710
C3581       C  0.76338455  0.79804032  0.57520074     0.05820
C3582       C  0.77513985  0.79788816  0.55816484    -0.02730
Br3583     Br  0.79511727  0.81696964  0.55313206    -0.02430
H3584       H  0.78248887  0.78265250  0.53170493     0.09730
H3585       H  0.74137734  0.78190339  0.59116334     0.07750
Br3586     Br  0.73393397  0.74465034  0.57290809    -0.02850
C3587       C  0.80800262  0.75093757  0.54754946    -0.09490
C3588       C  0.79273000  0.73763030  0.55043997     0.06710
C3589       C  0.79214531  0.72638107  0.56757319    -0.03260
C3590       C  0.80752832  0.72753723  0.58079543    -0.07710
C3591       C  0.82290266  0.74093846  0.57809544     0.05820
C3592       C  0.82251526  0.75338956  0.56162883    -0.02730
Br3593     Br  0.83996810  0.77515586  0.55823860    -0.02430
H3594       H  0.80833307  0.75984235  0.53449002     0.09730
H3595       H  0.80740312  0.71778972  0.59323980     0.07750
Br3596     Br  0.77074680  0.70943484  0.57396210    -0.02850
C3597       C  0.73395131  0.74799671  0.47585219    -0.09490
C3598       C  0.73503911  0.73233201  0.48896878     0.06710
C3599       C  0.72212940  0.71643924  0.48668514    -0.03260
C3600       C  0.70871279  0.71641987  0.47127189    -0.07710
C3601       C  0.70758124  0.73228710  0.45829503     0.05820
C3602       C  0.72019416  0.74835601  0.46094415    -0.02730
Br3603     Br  0.71852002  0.77199999  0.44596918    -0.02430
H3604       H  0.74400045  0.76011429  0.47712975     0.09730
H3605       H  0.69892717  0.70407925  0.46956478     0.07750
Br3606     Br  0.72154849  0.69489726  0.50458669    -0.02850
C3607       C  0.73769937  0.78052046  0.50872255    -0.09490
C3608       C  0.73262903  0.76310180  0.51807805     0.06710
C3609       C  0.71322873  0.76030091  0.52423508    -0.03260
C3610       C  0.69974612  0.77553533  0.52247509    -0.07710
C3611       C  0.70453681  0.79293097  0.51250881     0.05820
C3612       C  0.72362686  0.79458369  0.50446526    -0.02730
Br3613     Br  0.73110869  0.81332637  0.48486974    -0.02430
H3614       H  0.75241030  0.78235943  0.50313127     0.09730
H3615       H  0.68538497  0.77342486  0.52870132     0.07750
Br3616     Br  0.70397113  0.73577042  0.53400652    -0.02850
C3617       C  0.07637040  0.72215978  0.42186332    -0.09490
C3618       C  0.07844834  0.73832860  0.43449685     0.06710
C3619       C  0.09140355  0.75352101  0.42889973    -0.03260
C3620       C  0.09995472  0.75326504  0.41023721    -0.07710
C3621       C  0.09588210  0.73811472  0.39703365     0.05820
C3622       C  0.08471895  0.72206801  0.40329248    -0.02730
Br3623     Br  0.07925245  0.70024873  0.38645250    -0.02430
H3624       H  0.06696177  0.71004066  0.42572754     0.09730
H3625       H  0.10888262  0.76549885  0.40560669     0.07750
Br3626     Br  0.09758685  0.77536073  0.44544189    -0.02850
C3627       C  0.98052609  0.67875602  0.41600913    -0.09490
C3628       C  0.99759924  0.68225843  0.42687454     0.06710
C3629       C  0.01507929  0.67258302  0.42141893    -0.03260
C3630       C  0.01551912  0.66105560  0.40457540    -0.07710
C3631       C  0.99882846  0.65881913  0.39301318     0.05820
C3632       C  0.98109848  0.66726722  0.39908807    -0.02730
Br3633     Br  0.95770687  0.66449763  0.38386816    -0.02430
H3634       H  0.96692100  0.68570143  0.42013475     0.09730
H3635       H  0.02924169  0.65471849  0.39986272     0.07750
Br3636     Br  0.03894068  0.67426246  0.43618138    -0.02850
C3637       C  0.92734076  0.66889380  0.52691453    -0.09490
C3638       C  0.93216828  0.67808828  0.50920525     0.06710
C3639       C  0.91924962  0.67636313  0.49315613    -0.03260
C3640       C  0.90138312  0.66673581  0.49549960    -0.07710
C3641       C  0.89611679  0.65869430  0.51355132     0.05820
C3642       C  0.90948706  0.65914799  0.52912627    -0.02730
Br3643     Br  0.90312406  0.64827373  0.55413449    -0.02430
H3644       H  0.93701630  0.67020325  0.53938022     0.09730
H3645       H  0.89099289  0.66661549  0.48354108     0.07750
Br3646     Br  0.92360388  0.68927225  0.46859471    -0.02850
C3647       C  0.91726337  0.73499680  0.56622429    -0.09490
C3648       C  0.92639997  0.75346072  0.56743909     0.06710
C3649       C  0.91971875  0.76674759  0.58184254    -0.03260
C3650       C  0.90358081  0.76179692  0.59360303    -0.07710
C3651       C  0.89401611  0.74374870  0.59142998     0.05820
C3652       C  0.90132255  0.73015034  0.57791186    -0.02730
Br3653     Br  0.88921620  0.70508320  0.57399663    -0.02430
H3654       H  0.92225345  0.72418037  0.55580084     0.09730
H3655       H  0.89777561  0.77252076  0.60369698     0.07750
Br3656     Br  0.93091269  0.79221352  0.58552224    -0.02850
C3657       C  0.92044510  0.54864266  0.78372639    -0.09490
C3658       C  0.93471497  0.54917832  0.76906223     0.06710
C3659       C  0.93099902  0.55947744  0.75167444    -0.03260
C3660       C  0.91269504  0.56817961  0.74871361    -0.07710
C3661       C  0.89795123  0.56631823  0.76282430     0.05820
C3662       C  0.90208781  0.55692564  0.78066424    -0.02730
Br3663     Br  0.88263890  0.55375221  0.80069000    -0.02430
H3664       H  0.92307992  0.54049145  0.79704011     0.09730
H3665       H  0.90961997  0.57542908  0.73499610     0.07750
Br3666     Br  0.95029466  0.56129974  0.73147920    -0.02850
C3667       C  0.92833212  0.48287876  0.69309349    -0.09490
C3668       C  0.92665589  0.46994700  0.70893207     0.06710
C3669       C  0.90876065  0.46061342  0.71249431    -0.03260
C3670       C  0.89250305  0.46535628  0.70113474    -0.07710
C3671       C  0.89353131  0.48013865  0.68682104     0.05820
C3672       C  0.91187637  0.48817926  0.68212166    -0.02730
Br3673     Br  0.91478767  0.50840953  0.66298729    -0.02430
H3674       H  0.94208711  0.49027232  0.69042480     0.09730
H3675       H  0.87852314  0.45883379  0.70476974     0.07750
Br3676     Br  0.90539633  0.44301572  0.73404421    -0.02850
C3677       C  0.03332048  0.39732610  0.70665953    -0.09490
C3678       C  0.01473070  0.40584875  0.70445297     0.06710
C3679       C  0.00089257  0.39632765  0.69238148    -0.03260
C3680       C  0.00527287  0.37793406  0.68433760    -0.07710
C3681       C  0.02319566  0.36871940  0.68824796     0.05820
C3682       C  0.03754581  0.37893309  0.69885507    -0.02730
Br3683     Br  0.06278565  0.36785492  0.70402180    -0.02430
H3684       H  0.04425864  0.40443336  0.71566080     0.09730
H3685       H  0.99412759  0.37020181  0.67614509     0.07750
Br3686     Br  0.97501310  0.40633387  0.68833795    -0.02850
C3687       C  0.08060565  0.39215139  0.79443426    -0.09490
C3688       C  0.06301846  0.39351934  0.78368114     0.06710
C3689       C  0.05841534  0.37822166  0.77031612    -0.03260
C3690       C  0.07126251  0.36284173  0.76776431    -0.07710
C3691       C  0.08808608  0.36093217  0.77911544     0.05820
C3692       C  0.09299164  0.37581197  0.79242002    -0.02730
Br3693     Br  0.11604742  0.37410975  0.80817522    -0.02430
H3694       H  0.08465951  0.40366577  0.80451844     0.09730
H3695       H  0.06761560  0.35158479  0.75720972     0.07750
Br3696     Br  0.03482474  0.37588781  0.75495921    -0.02850
C3697       C  0.82988019  0.61928387  0.77528679    -0.09490
C3698       C  0.84436327  0.61625317  0.76120968     0.06710
C3699       C  0.84903611  0.63163247  0.74829009    -0.03260
C3700       C  0.83839709  0.64920193  0.74901715    -0.07710
C3701       C  0.82272214  0.65159139  0.76215494     0.05820
C3702       C  0.81861467  0.63616567  0.77542883    -0.02730
Br3703     Br  0.79600355  0.63477824  0.79206764    -0.02430
H3704       H  0.82617335  0.60761925  0.78533791     0.09730
H3705       H  0.84172445  0.66059423  0.73855741     0.07750
Br3706     Br  0.86830327  0.62874928  0.72814527    -0.02850
C3707       C  0.72532940  0.63152443  0.81502088    -0.09490
C3708       C  0.74084531  0.64493600  0.81604801     0.06710
C3709       C  0.75602645  0.64161694  0.82962771    -0.03260
C3710       C  0.75630391  0.62443802  0.84066962    -0.07710
C3711       C  0.74149099  0.61036642  0.83873645     0.05820
C3712       C  0.72556711  0.61432490  0.82620578    -0.02730
Br3713     Br  0.70373739  0.59681129  0.82408363    -0.02430
H3714       H  0.71327067  0.63415742  0.80511549     0.09730
H3715       H  0.76855184  0.62175716  0.85033704     0.07750
Br3716     Br  0.77638503  0.66042978  0.83434014    -0.02850
C3717       C  0.67748563  0.74872307  0.83583767    -0.09490
C3718       C  0.68108792  0.73116526  0.82576916     0.06710
C3719       C  0.66744509  0.71570238  0.82754651    -0.03260
C3720       C  0.65008585  0.71858623  0.83792533    -0.07710
C3721       C  0.64579388  0.73667510  0.84655048     0.05820
C3722       C  0.66004156  0.75152334  0.84623399    -0.02730
Br3723     Br  0.65531484  0.77662892  0.85772221    -0.02430
H3724       H  0.68773260  0.76073984  0.83462842     0.09730
H3725       H  0.63909634  0.70716141  0.83786169     0.07750
Br3726     Br  0.66980450  0.69141958  0.81357919    -0.02850
C3727       C  0.66941508  0.80322920  0.73224611    -0.09490
C3728       C  0.67199717  0.78706414  0.74477737     0.06710
C3729       C  0.65758825  0.78325796  0.75913290    -0.03260
C3730       C  0.64173434  0.79573057  0.76110850    -0.07710
C3731       C  0.63889513  0.81157228  0.74845396     0.05820
C3732       C  0.65289498  0.81536894  0.73390219    -0.02730
Br3733     Br  0.64959231  0.83629862  0.71565059    -0.02430
H3734       H  0.68027027  0.80649143  0.72120286     0.09730
H3735       H  0.63087528  0.79245717  0.77217852     0.07750
Br3736     Br  0.65728490  0.76056265  0.77579492    -0.02850
C3737       C  0.77680236  0.80536844  0.67571611    -0.09490
C3738       C  0.75878560  0.79731226  0.68159082     0.06710
C3739       C  0.74218722  0.80038095  0.66958025    -0.03260
C3740       C  0.74416668  0.81021020  0.65176518    -0.07710
C3741       C  0.76236637  0.81718219  0.64548766     0.05820
C3742       C  0.77865374  0.81527079  0.65786806    -0.02730
Br3743     Br  0.80400769  0.82436279  0.65012721    -0.02430
H3744       H  0.78972252  0.80310458  0.68457367     0.09730
H3745       H  0.73161559  0.81141518  0.64217612     0.07750
Br3746     Br  0.71691173  0.78930279  0.67497521    -0.02850
C3747       C  0.84028975  0.71073929  0.64984064    -0.09490
C3748       C  0.84502069  0.73031366  0.64566881     0.06710
C3749       C  0.83839631  0.74506421  0.65826417    -0.03260
C3750       C  0.82627208  0.74033080  0.67395593    -0.07710
C3751       C  0.82028663  0.72093312  0.67743099     0.05820
C3752       C  0.82807805  0.70592271  0.66564571    -0.02730
Br3753     Br  0.82071518  0.67907078  0.66884619    -0.02430
H3754       H  0.84480576  0.69932797  0.63983631     0.09730
H3755       H  0.82080881  0.75209063  0.68304278     0.07750
Br3756     Br  0.84365380  0.77213973  0.65316366    -0.02850
C3757       C  0.61273123  0.74009606  0.46177589    -0.09490
C3758       C  0.60330161  0.72171327  0.46208419     0.06710
C3759       C  0.61112646  0.70652646  0.45038992    -0.03260
C3760       C  0.62845560  0.70973459  0.43977306    -0.07710
C3761       C  0.63800985  0.72789751  0.44037894     0.05820
C3762       C  0.62980500  0.74320307  0.45122402    -0.02730
Br3763     Br  0.64217431  0.76838521  0.45317679    -0.02430
H3764       H  0.60708742  0.75229596  0.47012531     0.09730
H3765       H  0.63497703  0.69776523  0.43173146     0.07750
Br3766     Br  0.59970749  0.68095043  0.44885316    -0.02850
C3767       C  0.60913786  0.80245031  0.53261861    -0.09490
C3768       C  0.59689666  0.80038605  0.51625151     0.06710
C3769       C  0.60320943  0.80800096  0.49811157    -0.03260
C3770       C  0.62209278  0.81575379  0.49625728    -0.07710
C3771       C  0.63488138  0.81594766  0.51223679     0.05820
C3772       C  0.62803990  0.80997147  0.53069241    -0.02730
Br3773     Br  0.64448016  0.81063751  0.55344236    -0.02430
H3774       H  0.60465174  0.79671620  0.54667339     0.09730
H3775       H  0.62715824  0.82064454  0.48208517     0.07750
Br3776     Br  0.58692851  0.80763440  0.47527996    -0.02850
C3777       C  0.54790142  0.79548402  0.61710512    -0.09490
C3778       C  0.53316185  0.79550016  0.60289284     0.06710
C3779       C  0.51615241  0.80681113  0.60608296    -0.03260
C3780       C  0.51325791  0.81615019  0.62398781    -0.07710
C3781       C  0.52708245  0.81449369  0.63892613     0.05820
C3782       C  0.54495939  0.80488287  0.63507980    -0.02730
Br3783     Br  0.56538828  0.80354824  0.65426928    -0.02430
H3784       H  0.56117366  0.78721102  0.61471958     0.09730
H3785       H  0.49957397  0.82363015  0.62668749     0.07750
Br3786     Br  0.49596252  0.80954491  0.58673993    -0.02850
C3787       C  0.43896640  0.72991528  0.60371798    -0.09490
C3788       C  0.45716364  0.73928797  0.60131033     0.06710
C3789       C  0.46564980  0.74881232  0.61762796    -0.03260
C3790       C  0.45592946  0.74923431  0.63539919    -0.07710
C3791       C  0.43810810  0.73958134  0.63805717     0.05820
C3792       C  0.42938272  0.73003839  0.62198313    -0.02730
Br3793     Br  0.40528092  0.71601858  0.62464492    -0.02430
H3794       H  0.43242754  0.72216870  0.59155175     0.09730
H3795       H  0.46289561  0.75646678  0.64767658     0.07750
Br3796     Br  0.49177671  0.75923640  0.61808576    -0.02850
C3797       C  0.53508880  0.57566611  0.83805938    -0.09490
C3798       C  0.51919336  0.56980515  0.82630356     0.06710
C3799       C  0.50205279  0.58133533  0.82638607    -0.03260
C3800       C  0.50177498  0.59903859  0.83653410    -0.07710
C3801       C  0.51821564  0.60559770  0.84684605     0.05820
C3802       C  0.53471601  0.59349393  0.84821311    -0.02730
Br3803     Br  0.55755308  0.60160467  0.86229025    -0.02430
H3804       H  0.54839515  0.56711514  0.83822598     0.09730
H3805       H  0.48891384  0.60822418  0.83563567     0.07750
Br3806     Br  0.47866902  0.57419720  0.81250659    -0.02850
C3807       C  0.44932925  0.57798022  0.76288603    -0.09490
C3808       C  0.46070657  0.57673003  0.74587557     0.06710
C3809       C  0.45883793  0.59100324  0.73130652    -0.03260
C3810       C  0.44673361  0.60712732  0.73462038    -0.07710
C3811       C  0.43653986  0.60914960  0.75236725     0.05820
C3812       C  0.43730319  0.59408022  0.76623805    -0.02730
Br3813     Br  0.42432939  0.59613402  0.79099991    -0.02430
H3814       H  0.45075849  0.56697123  0.77416297     0.09730
H3815       H  0.44650744  0.61888900  0.72403562     0.07750
Br3816     Br  0.47419955  0.59016692  0.70789801    -0.02850
C3817       C  0.61673950  0.52261530  0.82012316    -0.09490
C3818       C  0.60392133  0.50682630  0.81782729     0.06710
C3819       C  0.60750186  0.48927455  0.82796401    -0.03260
C3820       C  0.62472694  0.48703387  0.83863877    -0.07710
C3821       C  0.63850128  0.50215045  0.83942208     0.05820
C3822       C  0.63398515  0.52038940  0.83093462    -0.02730
Br3823     Br  0.65125997  0.54235294  0.83321919    -0.02430
H3824       H  0.61391351  0.53625672  0.81263445     0.09730
H3825       H  0.62796283  0.47301582  0.84522221     0.07750
Br3826     Br  0.58969903  0.46756636  0.82675715    -0.02850
C3827       C  0.60414662  0.41437176  0.74654263    -0.09490
C3828       C  0.60160707  0.43196021  0.75706879     0.06710
C3829       C  0.61762330  0.43899399  0.76821430    -0.03260
C3830       C  0.63498095  0.42859882  0.76893591    -0.07710
C3831       C  0.63794022  0.41178595  0.75772339     0.05820
C3832       C  0.62218592  0.40437817  0.74663977    -0.02730
Br3833     Br  0.62491027  0.38177665  0.73032567    -0.02430
H3834       H  0.59231850  0.40871474  0.73766111     0.09730
H3835       H  0.64686331  0.43440873  0.77769247     0.07750
Br3836     Br  0.61894321  0.46387453  0.78095536    -0.02850
C3837       C  0.83215632  0.51376696  0.60706760    -0.09490
C3838       C  0.81427894  0.50350961  0.60612132     0.06710
C3839       C  0.81033704  0.48927318  0.62078883    -0.03260
C3840       C  0.82423813  0.48515081  0.63490652    -0.07710
C3841       C  0.84099440  0.49663802  0.63701203     0.05820
C3842       C  0.84519962  0.51083816  0.62273325    -0.02730
Br3843     Br  0.86781011  0.52725115  0.62479221    -0.02430
H3844       H  0.83569710  0.52453480  0.59603845     0.09730
H3845       H  0.82076699  0.47435990  0.64598396     0.07750
Br3846     Br  0.78576001  0.47594228  0.62485581    -0.02850
C3847       C  0.74711626  0.41663897  0.60488755    -0.09490
C3848       C  0.76266042  0.42649259  0.59575273     0.06710
C3849       C  0.78125531  0.42623871  0.60477230    -0.03260
C3850       C  0.78348301  0.41817952  0.62344906    -0.07710
C3851       C  0.76753363  0.40983296  0.63321616     0.05820
C3852       C  0.74944124  0.40835816  0.62348544    -0.02730
Br3853     Br  0.72703618  0.39690680  0.63587205    -0.02430
H3854       H  0.73272534  0.41671341  0.59828226     0.09730
H3855       H  0.79755620  0.41903929  0.63066078     0.07750
Br3856     Br  0.80401527  0.43707298  0.59238200    -0.02850
C3857       C  0.82700704  0.60473475  0.50381238    -0.09490
C3858       C  0.84251310  0.60828699  0.51660092     0.06710
C3859       C  0.84850661  0.59318916  0.52928913    -0.03260
C3860       C  0.83809280  0.57543629  0.52974655    -0.07710
C3861       C  0.82137686  0.57250333  0.51802823     0.05820
C3862       C  0.81616471  0.58756162  0.50470500    -0.02730
Br3863     Br  0.79331794  0.58778135  0.48853332    -0.02430
H3864       H  0.82239865  0.61612224  0.49382041     0.09730
H3865       H  0.84250295  0.56432925  0.54009633     0.07750
Br3866     Br  0.86945334  0.59662118  0.54760479    -0.02850
C3867       C  0.72952359  0.60633280  0.44567761    -0.09490
C3868       C  0.74800923  0.61084389  0.43784478     0.06710
C3869       C  0.76344204  0.59750586  0.44029613    -0.03260
C3870       C  0.76059289  0.58066335  0.45138167    -0.07710
C3871       C  0.74269052  0.57696321  0.46064184     0.05820
C3872       C  0.72673480  0.58935683  0.45690808    -0.02730
Br3873     Br  0.70158805  0.58460823  0.46826334    -0.02430
H3874       H  0.71761388  0.61661434  0.44407983     0.09730
H3875       H  0.77285414  0.57096574  0.45382008     0.07750
Br3876     Br  0.78949553  0.60303272  0.43135729    -0.02850
C3877       C  0.19821610  0.89630263  0.01490820    -0.09490
C3878       C  0.20607150  0.90032114  0.99632616     0.06710
C3879       C  0.20072712  0.88806993  0.98057037    -0.03260
C3880       C  0.18946287  0.87120244  0.98410478    -0.07710
C3881       C  0.18312225  0.86644963  0.00309433     0.05820
C3882       C  0.18714694  0.87953541  0.01842449    -0.02730
Br3883     Br  0.18059924  0.87366107  0.04508613    -0.02430
H3884       H  0.20159843  0.90575370  0.02716365     0.09730
H3885       H  0.18683997  0.86102602  0.97225476     0.07750
Br3886     Br  0.20986241  0.89241035  0.95444166    -0.02850
C3887       C  0.27780616  0.89917354  0.08848014    -0.09490
C3888       C  0.26580095  0.90166604  0.07195458     0.06710
C3889       C  0.25406776  0.88576340  0.06571596    -0.03260
C3890       C  0.25443836  0.86822325  0.07584243    -0.07710
C3891       C  0.26736325  0.86523021  0.09137701     0.05820
C3892       C  0.27875267  0.88105619  0.09814382    -0.02730
Br3893     Br  0.29705238  0.87821319  0.11916552    -0.02430
H3894       H  0.28715096  0.91101891  0.09330829     0.09730
H3895       H  0.24561620  0.85617983  0.07048274     0.07750
Br3896     Br  0.23991642  0.88501890  0.04146988    -0.02850
C3897       C  0.29666612  0.04800320  0.91454073    -0.09490
C3898       C  0.28119543  0.04262037  0.92687976     0.06710
C3899       C  0.26238960  0.05048901  0.92325523    -0.03260
C3900       C  0.25899244  0.06187489  0.90663989    -0.07710
C3901       C  0.27404874  0.06581093  0.89341581     0.05820
C3902       C  0.29317623  0.05943776  0.89784907    -0.02730
Br3903     Br  0.31474119  0.06536404  0.88097747    -0.02430
H3904       H  0.31123842  0.04247943  0.91727434     0.09730
H3905       H  0.24425768  0.06668491  0.90342482     0.07750
Br3906     Br  0.24055512  0.04609617  0.94036990    -0.02850
C3907       C  0.19443618  0.99952586  0.92542176    -0.09490
C3908       C  0.20506133  0.98280584  0.93074705     0.06710
C3909       C  0.20599349  0.96687208  0.91765106    -0.03260
C3910       C  0.19701929  0.96816714  0.89940464    -0.07710
C3911       C  0.18701347  0.98508997  0.89381861     0.05820
C3912       C  0.18522576  0.00065899  0.90714449    -0.02730
Br3913     Br  0.17171442  0.02421094  0.90038302    -0.02430
H3914       H  0.19392306  0.01197743  0.93518956     0.09730
H3915       H  0.19858393  0.95620518  0.88913197     0.07750
Br3916     Br  0.22155816  0.94402610  0.92259838    -0.02850
C3917       C  0.28061855  0.29703482  0.67297604    -0.09490
C3918       C  0.26216668  0.29914534  0.68182455     0.06710
C3919       C  0.24853637  0.31205927  0.67318402    -0.03260
C3920       C  0.25289507  0.32096136  0.65518608    -0.07710
C3921       C  0.27061584  0.31717339  0.64556263     0.05820
C3922       C  0.28482769  0.30575352  0.65500639    -0.02730
Br3923     Br  0.30959813  0.30024827  0.64302926    -0.02430
H3924       H  0.29141497  0.28742222  0.67940794     0.09730
H3925       H  0.24179371  0.32960093  0.64794850     0.07750
Br3926     Br  0.22284432  0.31613546  0.68367500    -0.02850
C3927       C  0.24629724  0.17765773  0.35778610    -0.09490
C3928       C  0.26390898  0.17696596  0.34706332     0.06710
C3929       C  0.27945889  0.16545575  0.35447562    -0.03260
C3930       C  0.27779164  0.15693221  0.37301788    -0.07710
C3931       C  0.26095575  0.15962834  0.38437293     0.05820
C3932       C  0.24482594  0.16932264  0.37630397    -0.02730
Br3933     Br  0.22078135  0.17237781  0.39044229    -0.02430
H3934       H  0.23388741  0.18585131  0.35240836     0.09730
H3935       H  0.29014365  0.14911156  0.37907868     0.07750
Br3936     Br  0.30376193  0.16145993  0.34095973    -0.02850
C3937       C  0.32340522  0.23506219  0.64026354    -0.09490
C3938       C  0.34041417  0.22377273  0.63959681     0.06710
C3939       C  0.34421466  0.21064112  0.65490838    -0.03260
C3940       C  0.33079003  0.20889237  0.67047726    -0.07710
C3941       C  0.31313458  0.21961695  0.67062112     0.05820
C3942       C  0.30956004  0.23271314  0.65487616    -0.02730
Br3943     Br  0.28599424  0.24765274  0.65080707    -0.02430
H3944       H  0.32024388  0.24506900  0.62839399     0.09730
H3945       H  0.33405765  0.19893271  0.68231224     0.07750
Br3946     Br  0.36709447  0.19458510  0.65469520    -0.02850
C3947       C  0.20025971  0.27094794  0.38418129    -0.09490
C3948       C  0.18971872  0.25353548  0.38738105     0.06710
C3949       C  0.18913776  0.23933478  0.37250930    -0.03260
C3950       C  0.19970365  0.24229335  0.35532013    -0.07710
C3951       C  0.21115180  0.25915319  0.35255253     0.05820
C3952       C  0.21094820  0.27385062  0.36693538    -0.02730
Br3953     Br  0.22677156  0.29690287  0.36485458    -0.02430
H3954       H  0.20108542  0.28183912  0.39565589     0.09730
H3955       H  0.19968727  0.23086179  0.34434906     0.07750
Br3956     Br  0.17633212  0.21455654  0.37573075    -0.02850
C3957       C  0.23815447  0.28309281  0.51991802    -0.09490
C3958       C  0.23107018  0.26380302  0.52062054     0.06710
C3959       C  0.21063404  0.26113470  0.52049434    -0.03260
C3960       C  0.19816677  0.27697729  0.51760397    -0.07710
C3961       C  0.20494805  0.29644855  0.51816099     0.05820
C3962       C  0.22547051  0.29922298  0.52040245    -0.02730
Br3963     Br  0.23761794  0.32362268  0.52732065    -0.02430
H3964       H  0.25374434  0.28572214  0.52004272     0.09730
H3965       H  0.18286265  0.27367257  0.51565675     0.07750
Br3966     Br  0.19828012  0.23697065  0.52711525    -0.02850
C3967       C  0.20524792  0.22383393  0.46797008    -0.09490
C3968       C  0.20642603  0.24099513  0.45693165     0.06710
C3969       C  0.22075964  0.25503480  0.46166384    -0.03260
C3970       C  0.23349496  0.25158046  0.47727642    -0.07710
C3971       C  0.23147429  0.23487344  0.48907131     0.05820
C3972       C  0.21698758  0.22094670  0.48421071    -0.02730
Br3973     Br  0.21023576  0.19872379  0.49975787    -0.02430
H3974       H  0.19442503  0.21281848  0.46440295     0.09730
H3975       H  0.24461223  0.26233999  0.48069297     0.07750
Br3976     Br  0.22256003  0.27979393  0.44866295    -0.02850
C3977       C  0.26741234  0.21084610  0.47070512    -0.09490
C3978       C  0.26004848  0.20394798  0.48858427     0.06710
C3979       C  0.25427126  0.18433167  0.49004899    -0.03260
C3980       C  0.25357039  0.17284319  0.47337242    -0.07710
C3981       C  0.26184534  0.17908198  0.45555249     0.05820
C3982       C  0.26937625  0.19835277  0.45456442    -0.02730
Br3983     Br  0.28451935  0.20803022  0.43302973    -0.02430
H3984       H  0.27273361  0.22572987  0.46971304     0.09730
H3985       H  0.24702096  0.15852219  0.47477389     0.07750
Br3986     Br  0.24755995  0.17187277  0.51426474    -0.02850
C3987       C  0.31040899  0.23267371  0.54077212    -0.09490
C3988       C  0.29149606  0.23104327  0.54867902     0.06710
C3989       C  0.28941831  0.22936493  0.56905878    -0.03260
C3990       C  0.30587304  0.23001385  0.58092438    -0.07710
C3991       C  0.32489194  0.22995884  0.57302077     0.05820
C3992       C  0.32700414  0.23081437  0.55250729    -0.02730
Br3993     Br  0.35143624  0.22702542  0.53919451    -0.02430
H3994       H  0.31228757  0.23435881  0.52516755     0.09730
H3995       H  0.30359052  0.22996098  0.59656826     0.07750
Br3996     Br  0.26502338  0.22427412  0.58183497    -0.02850
C3997       C  0.30293099  0.20273615  0.50267276    -0.09490
C3998       C  0.28978770  0.20132434  0.51843157     0.06710
C3999       C  0.29271831  0.18634525  0.53232876    -0.03260
C4000       C  0.30821057  0.17318997  0.53010952    -0.07710
C4001       C  0.32115279  0.17453185  0.51425423     0.05820
C4002       C  0.31831063  0.18946221  0.50037153    -0.02730
Br4003     Br  0.33428180  0.19186039  0.47745388    -0.02430
H4004       H  0.30134094  0.21442557  0.49216207     0.09730
H4005       H  0.31026530  0.16186875  0.54096801     0.07750
Br4006     Br  0.27603473  0.18263295  0.55448351    -0.02850
C4007       C  0.27966339  0.27364472  0.54902778    -0.09490
C4008       C  0.26259433  0.26223184  0.55011005     0.06710
C4009       C  0.24865622  0.26655594  0.56474135    -0.03260
C4010       C  0.25222220  0.28165441  0.57803427    -0.07710
C4011       C  0.26947751  0.29267730  0.57713585     0.05820
C4012       C  0.28334556  0.28848844  0.56252539    -0.02730
Br4013     Br  0.30807013  0.30170460  0.56102304    -0.02430
H4014       H  0.29036101  0.27076716  0.53772600     0.09730
H4015       H  0.24140500  0.28486976  0.58913817     0.07750
Br4016     Br  0.22499486  0.25194911  0.56823202    -0.02850
C4017       C  0.41782554  0.18046497  0.52817202    -0.09490
C4018       C  0.43024595  0.17837813  0.51183614     0.06710
C4019       C  0.42424315  0.16566605  0.49658476    -0.03260
C4020       C  0.40568333  0.15683872  0.49730538    -0.07710
C4021       C  0.39286942  0.16046742  0.51290714     0.05820
C4022       C  0.39936964  0.17184065  0.52873141    -0.02730
Br4023     Br  0.38344467  0.17644082  0.55141036    -0.02430
H4024       H  0.42195279  0.18972935  0.54033301     0.09730
H4025       H  0.40092511  0.14771587  0.48525926     0.07750
Br4026     Br  0.44018049  0.15988824  0.47421672    -0.02850
C4027       C  0.41249926  0.27069517  0.57352010    -0.09490
C4028       C  0.42615311  0.25562174  0.57092678     0.06710
C4029       C  0.42353281  0.23789831  0.58119207    -0.03260
C4030       C  0.40678974  0.23491791  0.59242542    -0.07710
C4031       C  0.39219664  0.24916767  0.59347111     0.05820
C4032       C  0.39546080  0.26749666  0.58455938    -0.02730
Br4033     Br  0.37658292  0.28810728  0.58637966    -0.02430
H4034       H  0.41449211  0.28450139  0.56605737     0.09730
H4035       H  0.40443580  0.22074568  0.59908157     0.07750
Br4036     Br  0.44201420  0.21679777  0.57993420    -0.02850
C4037       C  0.64818096  0.20931882  0.33696161    -0.09490
C4038       C  0.64225445  0.22817925  0.34254485     0.06710
C4039       C  0.65309122  0.24440511  0.33620749    -0.03260
C4040       C  0.66894049  0.24173150  0.32364936    -0.07710
C4041       C  0.67430579  0.22298253  0.31718825     0.05820
C4042       C  0.66416887  0.20659930  0.32441788    -0.02730
Br4043     Br  0.66997370  0.18060159  0.31574304    -0.02430
H4044       H  0.63950560  0.19678483  0.34126448     0.09730
H4045       H  0.67676587  0.25446213  0.31839498     0.07750
Br4046     Br  0.64565130  0.27056093  0.34299717    -0.02850
C4047       C  0.57723666  0.25638492  0.42121850    -0.09490
C4048       C  0.57669699  0.24057919  0.43430542     0.06710
C4049       C  0.58577557  0.22287072  0.42877157    -0.03260
C4050       C  0.59374474  0.22079333  0.40997269    -0.07710
C4051       C  0.59264191  0.23609157  0.39640991     0.05820
C4052       C  0.58492065  0.25421014  0.40239176    -0.02730
Br4053     Br  0.58360628  0.27613302  0.38494764    -0.02430
H4054       H  0.57027685  0.27007273  0.42504740     0.09730
H4055       H  0.59995266  0.20690580  0.40562676     0.07750
Br4056     Br  0.58727068  0.20095340  0.44614806    -0.02850
C4057       C  0.65273767  0.30678002  0.24416431    -0.09490
C4058       C  0.64838050  0.31595712  0.26198380     0.06710
C4059       C  0.66305387  0.31745473  0.27636444    -0.03260
C4060       C  0.68127317  0.30857495  0.27328167    -0.07710
C4061       C  0.68522784  0.29853854  0.25582350     0.05820
C4062       C  0.67093963  0.29811295  0.24099862    -0.02730
Br4063     Br  0.67447938  0.28343730  0.21731573    -0.02430
H4064       H  0.64149635  0.30535254  0.23308862     0.09730
H4065       H  0.69200866  0.30863989  0.28491613     0.07750
Br4066     Br  0.65822161  0.32957662  0.30116242    -0.02850
C4067       C  0.38509926  0.17198268  0.29415510    -0.09490
C4068       C  0.38688582  0.16068662  0.27701188     0.06710
C4069       C  0.37051676  0.15830344  0.26484506    -0.03260
C4070       C  0.35329955  0.16840872  0.26908421    -0.07710
C4071       C  0.35208858  0.18108565  0.28523224     0.05820
C4072       C  0.36786603  0.18219857  0.29832464    -0.02730
Br4073     Br  0.36754403  0.19932346  0.32051636    -0.02430
H4074       H  0.39766623  0.17398157  0.30359163     0.09730
H4075       H  0.34115727  0.16735403  0.25896420     0.07750
Br4076     Br  0.37166821  0.14369364  0.24092462    -0.02850
C4077       C  0.48592865  0.17230555  0.41996708    -0.09490
C4078       C  0.49780379  0.18865457  0.42391246     0.06710
C4079       C  0.51280650  0.19347736  0.41046348    -0.03260
C4080       C  0.51620372  0.18162830  0.39432647    -0.07710
C4081       C  0.50418563  0.16558191  0.39007762     0.05820
C4082       C  0.48883639  0.16094291  0.40306680    -0.02730
Br4083     Br  0.47075699  0.14014348  0.39787295    -0.02430
H4084       H  0.47438446  0.16832067  0.43003520     0.09730
H4085       H  0.52785052  0.18561823  0.38435212     0.07750
Br4086     Br  0.52841863  0.21690230  0.41183938    -0.02850
C4087       C  0.35450573  0.24897764  0.19121044    -0.09490
C4088       C  0.35007076  0.23471885  0.20538412     0.06710
C4089       C  0.36396689  0.21958951  0.20870788    -0.03260
C4090       C  0.38189774  0.21982718  0.19902550    -0.07710
C4091       C  0.38671192  0.23478982  0.18606475     0.05820
C4092       C  0.37264965  0.24909995  0.18160790    -0.02730
Br4093     Br  0.37833229  0.27010040  0.16396222    -0.02430
H4094       H  0.34428226  0.26068564  0.18830830     0.09730
H4095       H  0.39272833  0.20882683  0.20253297     0.07750
Br4096     Br  0.36126895  0.19908580  0.22771808    -0.02850
C4097       C  0.46894398  0.25205163  0.23753807    -0.09490
C4098       C  0.48685724  0.24309529  0.23329603     0.06710
C4099       C  0.49009568  0.23562078  0.21449256    -0.03260
C4100       C  0.47495693  0.23560572  0.20092441    -0.07710
C4101       C  0.45692439  0.24485221  0.20481080     0.05820
C4102       C  0.45447850  0.25402649  0.22320829    -0.02730
Br4103     Br  0.43309241  0.27113590  0.22929125    -0.02430
H4104       H  0.46637199  0.25794933  0.25197808     0.09730
H4105       H  0.47752824  0.22811464  0.18725099     0.07750
Br4106     Br  0.51492284  0.22566822  0.20616958    -0.02850
C4107       C  0.53072215  0.27019457  0.22054028    -0.09490
C4108       C  0.51786908  0.27179754  0.23642029     0.06710
C4109       C  0.50522218  0.28801622  0.23731000    -0.03260
C4110       C  0.50476071  0.30149301  0.22192599    -0.07710
C4111       C  0.51709719  0.29947186  0.20561421     0.05820
C4112       C  0.53065157  0.28391171  0.20538280    -0.02730
Br4113     Br  0.55019084  0.28109907  0.18544818    -0.02430
H4114       H  0.54070418  0.25798676  0.21972897     0.09730
H4115       H  0.49450958  0.31351715  0.22262267     0.07750
Br4116     Br  0.48838189  0.29263531  0.25918967    -0.02850
C4117       C  0.49810372  0.20710342  0.30492645    -0.09490
C4118       C  0.51321959  0.20668986  0.29114326     0.06710
C4119       C  0.52583578  0.19037640  0.29073378    -0.03260
C4120       C  0.52389667  0.17562712  0.30480994    -0.07710
C4121       C  0.50896915  0.17637338  0.31888519     0.05820
C4122       C  0.49540087  0.19188571  0.31814018    -0.02730
Br4123     Br  0.47222147  0.19271194  0.33401065    -0.02430
H4124       H  0.48814973  0.21934318  0.30534685     0.09730
H4125       H  0.53430792  0.16372292  0.30495400     0.07750
Br4126     Br  0.54562604  0.18708212  0.27121632    -0.02850
C4127       C  0.56191507  0.22798708  0.29184244    -0.09490
C4128       C  0.54368812  0.23621795  0.29582855     0.06710
C4129       C  0.53931323  0.24182636  0.31515365    -0.03260
C4130       C  0.55380460  0.24088419  0.32956493    -0.07710
C4131       C  0.57214419  0.23230605  0.32575038     0.05820
C4132       C  0.57536968  0.22448376  0.30675897    -0.02730
Br4133     Br  0.59585158  0.20627352  0.30038955    -0.02430
H4134       H  0.56525636  0.22320157  0.27714183     0.09730
H4135       H  0.55044490  0.24682052  0.34380774     0.07750
Br4136     Br  0.51376490  0.25021512  0.32303612    -0.02850
C4137       C  0.56330640  0.26481188  0.25491141    -0.09490
C4138       C  0.54721544  0.26745274  0.26731253     0.06710
C4139       C  0.54708470  0.28333076  0.28030940    -0.03260
C4140       C  0.56310769  0.29581534  0.28120491    -0.07710
C4141       C  0.57877164  0.29404788  0.26801672     0.05820
C4142       C  0.57861046  0.27838789  0.25450377    -0.02730
Br4143     Br  0.59719100  0.27583387  0.23362948    -0.02430
H4144       H  0.56352300  0.25257864  0.24487127     0.09730
H4145       H  0.56286265  0.30756688  0.29181344     0.07750
Br4146     Br  0.52495725  0.28995722  0.29597208    -0.02850
C4147       C  0.47051661  0.18044899  0.24988499    -0.09490
C4148       C  0.45450392  0.18286628  0.26258093     0.06710
C4149       C  0.45350207  0.20024270  0.27390484    -0.03260
C4150       C  0.46782120  0.21461615  0.27167411    -0.07710
C4151       C  0.48454038  0.21112173  0.26045595     0.05820
C4152       C  0.48589605  0.19376127  0.24961560    -0.02730
Br4153     Br  0.50876801  0.18645098  0.23538548    -0.02430
H4154       H  0.47161415  0.16772242  0.24056765     0.09730
H4155       H  0.46676528  0.22798215  0.28010252     0.07750
Br4156     Br  0.43524748  0.20461223  0.29483290    -0.02850
C4157       C  0.20564628  0.39191480  0.48847143    -0.09490
C4158       C  0.20594287  0.40415582  0.50501349     0.06710
C4159       C  0.19566211  0.39829730  0.52187731    -0.03260
C4160       C  0.18650716  0.38000502  0.52240751    -0.07710
C4161       C  0.18763524  0.36713889  0.50645362     0.05820
C4162       C  0.19677952  0.37345219  0.48915039    -0.02730
Br4163     Br  0.19804601  0.35714415  0.46636576    -0.02430
H4164       H  0.21349169  0.39612435  0.47538192     0.09730
H4165       H  0.17935707  0.37537109  0.53574997     0.07750
Br4166     Br  0.19403807  0.41447666  0.54473858    -0.02850
C4167       C  0.26563578  0.38717387  0.56508536    -0.09490
C4168       C  0.28372859  0.39710886  0.56475728     0.06710
C4169       C  0.29883128  0.39030380  0.57721650    -0.03260
C4170       C  0.29580127  0.37354132  0.58873547    -0.07710
C4171       C  0.27791371  0.36348202  0.58828338     0.05820
C4172       C  0.26266411  0.37070652  0.57662720    -0.02730
Br4173     Br  0.23744847  0.35830370  0.57564037    -0.02430
H4174       H  0.25349507  0.39212205  0.55623263     0.09730
H4175       H  0.30770776  0.36788435  0.59748791     0.07750
Br4176     Br  0.32407808  0.40246729  0.57888694    -0.02850
C4177       C  0.23660007  0.60837938  0.32179770    -0.09490
C4178       C  0.25039059  0.61098728  0.33692751     0.06710
C4179       C  0.25780640  0.62986755  0.34048662    -0.03260
C4180       C  0.25249700  0.64527684  0.32811620    -0.07710
C4181       C  0.24031993  0.64205903  0.31189218     0.05820
C4182       C  0.23196980  0.62357597  0.30902432    -0.02730
Br4183     Br  0.21545675  0.61810667  0.28702793    -0.02430
H4184       H  0.23051774  0.59401973  0.31898700     0.09730
H4185       H  0.25923354  0.65946730  0.33019458     0.07750
Br4186     Br  0.27717469  0.63496234  0.36010873    -0.02850
C4187       C  0.28356526  0.56629786  0.40425271    -0.09490
C4188       C  0.26545253  0.56762763  0.39481057     0.06710
C4189       C  0.24839353  0.56265188  0.40506819    -0.03260
C4190       C  0.24975429  0.55505471  0.42399104    -0.07710
C4191       C  0.26804023  0.55192651  0.43298959     0.05820
C4192       C  0.28506006  0.55865460  0.42319867    -0.02730
Br4193     Br  0.31106657  0.55611417  0.43352260    -0.02430
H4194       H  0.29675304  0.57022670  0.39640780     0.09730
H4195       H  0.23645457  0.55023518  0.43110218     0.07750
Br4196     Br  0.22311524  0.56395058  0.39299508    -0.02850
C4197       C  0.33457020  0.62496544  0.27433768    -0.09490
C4198       C  0.34428072  0.61684284  0.25823397     0.06710
C4199       C  0.34367159  0.62656485  0.24017261    -0.03260
C4200       C  0.33236220  0.64353454  0.23816367    -0.07710
C4201       C  0.32117061  0.65068771  0.25389708     0.05820
C4202       C  0.32300959  0.64164338  0.27233906    -0.02730
Br4203     Br  0.30948229  0.65077029  0.29520210    -0.02430
H4204       H  0.33489782  0.61747899  0.28828154     0.09730
H4205       H  0.33113582  0.65023411  0.22388291     0.07750
Br4206     Br  0.35644433  0.61605608  0.21756978    -0.02850
C4207       C  0.19750398  0.46058555  0.39380081    -0.09490
C4208       C  0.18785997  0.47854929  0.39111741     0.06710
C4209       C  0.18934006  0.49298263  0.40561366    -0.03260
C4210       C  0.20123001  0.48973630  0.42188928    -0.07710
C4211       C  0.21184740  0.47223750  0.42403098     0.05820
C4212       C  0.20945383  0.45732506  0.41006924    -0.02730
Br4213     Br  0.22386685  0.43332152  0.41115253    -0.02430
H4214       H  0.19673773  0.44951512  0.38248977     0.09730
H4215       H  0.20268577  0.50126311  0.43265944     0.07750
Br4216     Br  0.17712695  0.51804055  0.40288758    -0.02850
C4217       C  0.18405928  0.34484759  0.27714732    -0.09490
C4218       C  0.18726662  0.35685729  0.26086993     0.06710
C4219       C  0.19813364  0.34961870  0.24504244    -0.03260
C4220       C  0.20691668  0.33129695  0.24630363    -0.07710
C4221       C  0.20546542  0.31986046  0.26338052     0.05820
C4222       C  0.19300403  0.32646596  0.27858088    -0.02730
Br4223     Br  0.18794947  0.31182111  0.30199420    -0.02430
H4224       H  0.17537681  0.35021919  0.28924743     0.09730
H4225       H  0.21594446  0.32660970  0.23418265     0.07750
Br4226     Br  0.20207154  0.36455557  0.22161837    -0.02850
C4227       C  0.29565541  0.35570738  0.19590349    -0.09490
C4228       C  0.27728831  0.35863725  0.18707631     0.06710
C4229       C  0.26319103  0.34377770  0.18806689    -0.03260
C4230       C  0.26721179  0.32676650  0.19855358    -0.07710
C4231       C  0.28515623  0.32418488  0.20834210     0.05820
C4232       C  0.29972287  0.33859100  0.20642552    -0.02730
Br4233     Br  0.32438341  0.33666449  0.21959063    -0.02430
H4234       H  0.30650276  0.36724872  0.19545721     0.09730
H4235       H  0.25584318  0.31579436  0.19978707     0.07750
Br4236     Br  0.23752293  0.34692177  0.17721654    -0.02850
C4237       C  0.27393013  0.42568099  0.22283694    -0.09490
C4238       C  0.26663992  0.42898690  0.20379845     0.06710
C4239       C  0.25799553  0.44752883  0.19997627    -0.03260
C4240       C  0.25929325  0.46236865  0.21388430    -0.07710
C4241       C  0.26517767  0.45836672  0.23297086     0.05820
C4242       C  0.27182432  0.43952779  0.23762631    -0.02730
Br4243     Br  0.27752041  0.43132215  0.26383645    -0.02430
H4244       H  0.28096587  0.41216155  0.22677076     0.09730
H4245       H  0.25401329  0.47683269  0.21028450     0.07750
Br4246     Br  0.24079726  0.45339702  0.17847863    -0.02850
C4247       C  0.27775857  0.51515033  0.30748735    -0.09490
C4248       C  0.26226532  0.51704862  0.29400560     0.06710
C4249       C  0.24837958  0.53194154  0.29711154    -0.03260
C4250       C  0.24987108  0.54401018  0.31332129    -0.07710
C4251       C  0.26593901  0.54309510  0.32597381     0.05820
C4252       C  0.27994908  0.52831741  0.32313352    -0.02730
Br4253     Br  0.30292735  0.52650604  0.33903334    -0.02430
H4254       H  0.28861319  0.50384197  0.30536270     0.09730
H4255       H  0.23888401  0.55522676  0.31536266     0.07750
Br4256     Br  0.22844394  0.53912885  0.27904087    -0.02850
C4257       C  0.29214875  0.50272319  0.21784698    -0.09490
C4258       C  0.29362244  0.48952327  0.23345494     0.06710
C4259       C  0.30996759  0.47708928  0.23451024    -0.03260
C4260       C  0.32377108  0.47719941  0.21960853    -0.07710
C4261       C  0.32244076  0.49032441  0.20392527     0.05820
C4262       C  0.30655932  0.50348948  0.20331134    -0.02730
Br4263     Br  0.30449110  0.52376962  0.18408776    -0.02430
H4264       H  0.27987544  0.51267893  0.21716699     0.09730
H4265       H  0.33589256  0.46707599  0.22050215     0.07750
Br4266     Br  0.31553724  0.46084913  0.25654248    -0.02850
C4267       C  0.31165727  0.51349768  0.26811202    -0.09490
C4268       C  0.29251608  0.51914811  0.26389773     0.06710
C4269       C  0.28900814  0.53885790  0.25965578    -0.03260
C4270       C  0.30389103  0.55268492  0.26200266    -0.07710
C4271       C  0.32360897  0.54715152  0.26520320     0.05820
C4272       C  0.32725715  0.52666240  0.26679592    -0.02730
Br4273     Br  0.35204798  0.51400432  0.26303921    -0.02430
H4274       H  0.31470523  0.49834999  0.27103063     0.09730
H4275       H  0.29958366  0.56769912  0.26038111     0.07750
Br4276     Br  0.26527646  0.54735016  0.24764072    -0.02850
C4277       C  0.20427204  0.44150138  0.24636602    -0.09490
C4278       C  0.20454493  0.42773703  0.26152710     0.06710
C4279       C  0.21883386  0.42940610  0.27623809    -0.03260
C4280       C  0.23261114  0.44448149  0.27543136    -0.07710
C4281       C  0.23246746  0.45834256  0.26028893     0.05820
C4282       C  0.21798611  0.45669706  0.24560037    -0.02730
Br4283     Br  0.21524975  0.47497195  0.22455998    -0.02430
H4284       H  0.19324433  0.44043589  0.23504875     0.09730
H4285       H  0.24354119  0.44540248  0.28681271     0.07750
Br4286     Br  0.21951047  0.41225623  0.29839376    -0.02850
C4287       C  0.23616871  0.47827347  0.30809274    -0.09490
C4288       C  0.23137000  0.48773718  0.29063074     0.06710
C4289       C  0.21204821  0.49400269  0.28764618    -0.03260
C4290       C  0.19887055  0.49345829  0.30304275    -0.07710
C4291       C  0.20334296  0.48380137  0.32064297     0.05820
C4292       C  0.22199093  0.47486386  0.32235742    -0.02730
Br4293     Br  0.22849821  0.45541568  0.34157358    -0.02430
H4294       H  0.25066504  0.47217954  0.30992458     0.09730
H4295       H  0.18497525  0.50056773  0.30081381     0.07750
Br4296     Br  0.20205173  0.50265872  0.26298012    -0.02850
C4297       C  0.42895781  0.56326166  0.28042272    -0.09490
C4298       C  0.43118256  0.54486234  0.27145356     0.06710
C4299       C  0.41456086  0.53596471  0.26302946    -0.03260
C4300       C  0.39697545  0.54590922  0.26206910    -0.07710
C4301       C  0.39430248  0.56399588  0.27125790     0.05820
C4302       C  0.41059987  0.57277748  0.28058778    -0.02730
Br4303     Br  0.40841164  0.59678883  0.29484206    -0.02430
H4304       H  0.44134142  0.57003695  0.28760284     0.09730
H4305       H  0.38492526  0.53892900  0.25458268     0.07750
Br4306     Br  0.41352603  0.50896215  0.25535480    -0.02850
C4307       C  0.39919954  0.46225936  0.19129608    -0.09490
C4308       C  0.39252003  0.48152726  0.18920417     0.06710
C4309       C  0.40336528  0.49691755  0.19726991    -0.03260
C4310       C  0.42045820  0.49293004  0.20752026    -0.07710
C4311       C  0.42678120  0.47359591  0.21078308     0.05820
C4312       C  0.41615723  0.45813461  0.20208112    -0.02730
Br4313     Br  0.42288214  0.43117442  0.20554383    -0.02430
H4314       H  0.39060886  0.45031567  0.18540656     0.09730
H4315       H  0.42857138  0.50517928  0.21343830     0.07750
Br4316     Br  0.39479828  0.52357538  0.19559466    -0.02850
C4317       C  0.53063378  0.39591601  0.19954939    -0.09490
C4318       C  0.51295255  0.40651744  0.19991664     0.06710
C4319       C  0.49673520  0.39879279  0.18953934    -0.03260
C4320       C  0.49788849  0.38003152  0.18127888    -0.07710
C4321       C  0.51491068  0.36879375  0.18313249     0.05820
C4322       C  0.53161123  0.37719871  0.19157858    -0.02730
Br4323     Br  0.55580929  0.36316692  0.19370725    -0.02430
H4324       H  0.54355456  0.40152460  0.20678331     0.09730
H4325       H  0.48508142  0.37374448  0.17438169     0.07750
Br4326     Br  0.47228108  0.41222917  0.18687321    -0.02850
C4327       C  0.57275087  0.38481570  0.29532837    -0.09490
C4328       C  0.56966731  0.39698154  0.27914515     0.06710
C4329       C  0.58004513  0.39322346  0.26162260    -0.03260
C4330       C  0.59205649  0.37680160  0.26016516    -0.07710
C4331       C  0.59399781  0.36394310  0.27587855     0.05820
C4332       C  0.58465736  0.36827483  0.29373468    -0.02730
Br4333     Br  0.58692329  0.35130897  0.31592888    -0.02430
H4334       H  0.56522899  0.38767933  0.30895913     0.09730
H4335       H  0.59905612  0.37347365  0.24635730     0.07750
Br4336     Br  0.57870257  0.40995122  0.23911165    -0.02850
C4337       C  0.50212826  0.29347914  0.10810957    -0.09490
C4338       C  0.51945269  0.29618917  0.09728209     0.06710
C4339       C  0.53351623  0.30962332  0.10437878    -0.03260
C4340       C  0.53065052  0.31873927  0.12253045    -0.07710
C4341       C  0.51412156  0.31457556  0.13395838     0.05820
C4342       C  0.49946951  0.30236045  0.12629945    -0.02730
Br4343     Br  0.47585816  0.29679098  0.14042287    -0.02430
H4344       H  0.49095488  0.28352017  0.10289616     0.09730
H4345       H  0.54198474  0.32818592  0.12831781     0.07750
Br4346     Br  0.55789341  0.31460093  0.09138528    -0.02850
C4347       C  0.44753035  0.22769029  0.10296892    -0.09490
C4348       C  0.46437427  0.21619254  0.10529932     0.06710
C4349       C  0.46901892  0.20870397  0.12376566    -0.03260
C4350       C  0.45744716  0.21362190  0.13978858    -0.07710
C4351       C  0.44166328  0.22669285  0.13787697     0.05820
C4352       C  0.43627907  0.23320259  0.11915112    -0.02730
Br4353     Br  0.41555580  0.25161836  0.11520790    -0.02430
H4354       H  0.44411906  0.23382535  0.08878387     0.09730
H4355       H  0.46159159  0.20825573  0.15409485     0.07750
Br4356     Br  0.49178034  0.19291645  0.12795018    -0.02850
C4357       C  0.62856021  0.21888373  0.94366333    -0.09490
C4358       C  0.63354821  0.23723580  0.93597299     0.06710
C4359       C  0.61938155  0.25216830  0.93581745    -0.03260
C4360       C  0.60105002  0.24893860  0.94446225    -0.07710
C4361       C  0.59646651  0.23084500  0.95299385     0.05820
C4362       C  0.61026550  0.21560162  0.95213388    -0.02730
Br4363     Br  0.60600402  0.19092808  0.96482912    -0.02430
H4364       H  0.63939630  0.20735645  0.94407957     0.09730
H4365       H  0.59069380  0.26086010  0.94535621     0.07750
Br4366     Br  0.62504559  0.27773231  0.92587740    -0.02850
C4367       C  0.62709446  0.30838143  0.00804504    -0.09490
C4368       C  0.63709330  0.31458501  0.02471402     0.06710
C4369       C  0.62962704  0.31008488  0.04336254    -0.03260
C4370       C  0.61297248  0.29826576  0.04508883    -0.07710
C4371       C  0.60398253  0.29062167  0.02832612     0.05820
C4372       C  0.61064170  0.29652035  0.00967396    -0.02730
Br4373     Br  0.59822658  0.28849537  0.98575343    -0.02430
H4374       H  0.63285800  0.31174228  0.99368280     0.09730
H4375       H  0.60783316  0.29406190  0.05945393     0.07750
Br4376     Br  0.64285226  0.31826321  0.06669254    -0.02850
C4377       C  0.45866106  0.09125109  0.23471357    -0.09490
C4378       C  0.45863400  0.07671077  0.24908049     0.06710
C4379       C  0.44706503  0.07934890  0.26601923    -0.03260
C4380       C  0.43726698  0.09698848  0.26915917    -0.07710
C4381       C  0.43868940  0.11219707  0.25560309     0.05820
C4382       C  0.44879154  0.10891388  0.23784515    -0.02730
Br4383     Br  0.44986052  0.12825843  0.21756198    -0.02430
H4384       H  0.46713896  0.08928543  0.22149231     0.09730
H4385       H  0.42932626  0.09916934  0.28267892     0.07750
Br4386     Br  0.44415034  0.05932324  0.28545404    -0.02850
C4387       C  0.49766134  0.09595339  0.34327287    -0.09490
C4388       C  0.51415993  0.10801851  0.34455428     0.06710
C4389       C  0.53252654  0.10049376  0.33923219    -0.03260
C4390       C  0.53390547  0.08177894  0.33105169    -0.07710
C4391       C  0.51706886  0.07038707  0.32774203     0.05820
C4392       C  0.49895715  0.07724899  0.33502055    -0.02730
Br4393     Br  0.47532467  0.06216465  0.33353148    -0.02430
H4394       H  0.48350920  0.10154030  0.34763485     0.09730
H4395       H  0.54799962  0.07686931  0.32578811     0.07750
Br4396     Br  0.55586459  0.11590823  0.34152171    -0.02850
C4397       C  0.63421867  0.02503328  0.33248307    -0.09490
C4398       C  0.63797199  0.00805597  0.34347604     0.06710
C4399       C  0.62427552  0.99263609  0.34285897    -0.03260
C4400       C  0.60785209  0.99402277  0.33081797    -0.07710
C4401       C  0.60456102  0.01054558  0.31912639     0.05820
C4402       C  0.61767275  0.02640380  0.32040534    -0.02730
Br4403     Br  0.61492439  0.04924177  0.30443209    -0.02430
H4404       H  0.64479538  0.03682874  0.33245470     0.09730
H4405       H  0.59780422  0.98178205  0.33018072     0.07750
Br4406     Br  0.62820592  0.96829077  0.35624033    -0.02850
C4407       C  0.62023826  0.90725304  0.28172358    -0.09490
C4408       C  0.63219059  0.90575218  0.26515483     0.06710
C4409       C  0.62531497  0.91292544  0.24715952    -0.03260
C4410       C  0.60733585  0.92262338  0.24622068    -0.07710
C4411       C  0.59612988  0.92579277  0.26316338     0.05820
C4412       C  0.60235223  0.91721838  0.28088441    -0.02730
Br4413     Br  0.58736068  0.91915427  0.30449936    -0.02430
H4414       H  0.62539325  0.90173530  0.29562782     0.09730
H4415       H  0.60291264  0.92906921  0.23246330     0.07750
Br4416     Br  0.64082553  0.91124259  0.22384832    -0.02850
C4417       C  0.58097973  0.85348178  0.99860104    -0.09490
C4418       C  0.59188505  0.85789398  0.01538253     0.06710
C4419       C  0.59466958  0.84331037  0.02961023    -0.03260
C4420       C  0.58544636  0.82507635  0.02748024    -0.07710
C4421       C  0.57376294  0.82097748  0.01106149     0.05820
C4422       C  0.57197716  0.83528929  0.99630907    -0.02730
Br4423     Br  0.55514369  0.83206442  0.97403547    -0.02430
H4424       H  0.57865617  0.86464730  0.98762675     0.09730
H4425       H  0.58668931  0.81438870  0.03907302     0.07750
Br4426     Br  0.60943520  0.84824314  0.05290515    -0.02850
C4427       C  0.66989940  0.93040897  0.00487634    -0.09490
C4428       C  0.68154453  0.92717375  0.02158147     0.06710
C4429       C  0.67481514  0.91350256  0.03559060    -0.03260
C4430       C  0.65622251  0.90492732  0.03345656    -0.07710
C4431       C  0.64401273  0.90979791  0.01767879     0.05820
C4432       C  0.65135200  0.92207485  0.00292845    -0.02730
Br4433     Br  0.63637353  0.92854505  0.98007636    -0.02430
H4434       H  0.67475172  0.94041787  0.99363614     0.09730
H4435       H  0.65079178  0.89532187  0.04480342     0.07750
Br4436     Br  0.68918774  0.90715943  0.05882118    -0.02850
C4437       C  0.59196935  0.96148196  0.87840977    -0.09490
C4438       C  0.58869582  0.97738037  0.89095689     0.06710
C4439       C  0.57405125  0.99096472  0.88632992    -0.03260
C4440       C  0.56231932  0.98805330  0.87003168    -0.07710
C4441       C  0.56467175  0.97164349  0.85779969     0.05820
C4442       C  0.58019111  0.95855394  0.86179576    -0.02730
Br4443     Br  0.58546046  0.93591855  0.84609481    -0.02430
H4444       H  0.60304054  0.95080116  0.88208269     0.09730
H4445       H  0.55106505  0.99878224  0.86712631     0.07750
Br4446     Br  0.56862144  0.01321293  0.90263389    -0.02850
C4447       C  0.65744970  0.97898948  0.94192684    -0.09490
C4448       C  0.64269124  0.99274845  0.93893717     0.06710
C4449       C  0.64498014  0.01185496  0.94644510    -0.03260
C4450       C  0.66114852  0.01643314  0.95819638    -0.07710
C4451       C  0.67491982  0.00201362  0.96265598     0.05820
C4452       C  0.67347786  0.98348067  0.95371261    -0.02730
Br4453     Br  0.69241591  0.96330638  0.95832003    -0.02430
H4454       H  0.65567985  0.96421665  0.93649043     0.09730
H4455       H  0.66222516  0.03074043  0.96489432     0.07750
Br4456     Br  0.62522357  0.03136913  0.94272095    -0.02850
C4457       C  0.48378191  0.85876355  0.08252171    -0.09490
C4458       C  0.50131136  0.86162614  0.09296547     0.06710
C4459       C  0.51538934  0.84666675  0.09305214    -0.03260
C4460       C  0.51224395  0.82975942  0.08203108    -0.07710
C4461       C  0.49522199  0.82733017  0.07075521     0.05820
C4462       C  0.48062989  0.84177104  0.07148701    -0.02730
Br4463     Br  0.45732360  0.84008492  0.05599020    -0.02430
H4464       H  0.47297168  0.87030782  0.08208177     0.09730
H4465       H  0.52355285  0.81869450  0.08169540     0.07750
Br4466     Br  0.54011933  0.84941313  0.10603520    -0.02850
C4467       C  0.50640986  0.91409309  0.15879827    -0.09490
C4468       C  0.52141738  0.91004742  0.14557168     0.06710
C4469       C  0.54073541  0.91557262  0.15031044    -0.03260
C4470       C  0.54448630  0.92661992  0.16721423    -0.07710
C4471       C  0.52910383  0.93225940  0.17953357     0.05820
C4472       C  0.51010282  0.92489348  0.17574835    -0.02730
Br4473     Br  0.48843155  0.92916027  0.19309997    -0.02430
H4474       H  0.49154223  0.90981928  0.15536923     0.09730
H4475       H  0.55921325  0.93166481  0.17013212     0.07750
Br4476     Br  0.56219980  0.90906921  0.13353609    -0.02850
C4477       C  0.52886934  0.05025875  0.85300615    -0.09490
C4478       C  0.50975515  0.04836205  0.84561209     0.06710
C4479       C  0.49406655  0.05608804  0.85659270    -0.03260
C4480       C  0.49754852  0.06386302  0.87524466    -0.07710
C4481       C  0.51648357  0.06431994  0.88308987     0.05820
C4482       C  0.53230127  0.05835269  0.87147892    -0.02730
Br4483     Br  0.55869071  0.06035757  0.88066112    -0.02430
H4484       H  0.54111336  0.04450881  0.84478435     0.09730
H4485       H  0.48531067  0.06867355  0.88406036     0.07750
Br4486     Br  0.46737673  0.05424297  0.84809838    -0.02850
C4487       C  0.54444597  0.11638325  0.94702219    -0.09490
C4488       C  0.52697106  0.11353021  0.93653825     0.06710
C4489       C  0.51259257  0.12814629  0.93673842    -0.03260
C4490       C  0.51527160  0.14469813  0.94840184    -0.07710
C4491       C  0.53215597  0.14688915  0.95987166     0.05820
C4492       C  0.54709165  0.13292608  0.95872703    -0.02730
Br4493     Br  0.57015083  0.13476369  0.97456582    -0.02430
H4494       H  0.55547619  0.10504080  0.94714537     0.09730
H4495       H  0.50365657  0.15540562  0.94936066     0.07750
Br4496     Br  0.48822838  0.12508968  0.92320831    -0.02850
C4497       C  0.38468235  0.95302318  0.08097790    -0.09490
C4498       C  0.38706922  0.97042454  0.09174725     0.06710
C4499       C  0.37204502  0.98444268  0.09136929    -0.03260
C4500       C  0.35564939  0.98147285  0.07960177    -0.07710
C4501       C  0.35368751  0.96465247  0.06796757     0.05820
C4502       C  0.36804713  0.94996998  0.06926336    -0.02730
Br4503     Br  0.36672428  0.92666429  0.05376477    -0.02430
H4504       H  0.39633604  0.94232875  0.08076815     0.09730
H4505       H  0.34465069  0.99283267  0.07894467     0.07750
Br4506     Br  0.37428629  0.00915007  0.10453368    -0.02850
C4507       C  0.45507814  0.98155000  0.14597543    -0.09490
C4508       C  0.43634219  0.98951952  0.14395207     0.06710
C4509       C  0.42736370  0.99797835  0.16051186    -0.03260
C4510       C  0.43745684  0.99856933  0.17854595    -0.07710
C4511       C  0.45648268  0.99087424  0.18023725     0.05820
C4512       C  0.46531706  0.98269592  0.16343817    -0.02730
Br4513     Br  0.49241240  0.97535611  0.16202479    -0.02430
H4514       H  0.46233330  0.97516225  0.13342012     0.09730
H4515       H  0.43060201  0.00532278  0.19110635     0.07750
Br4516     Br  0.40214234  0.00997542  0.15889728    -0.02850
C4517       C  0.37392227  0.06722815  0.99848233    -0.09490
C4518       C  0.38563162  0.06486505  0.01512418     0.06710
C4519       C  0.37818426  0.05457010  0.03120870    -0.03260
C4520       C  0.35984213  0.04568935  0.02999142    -0.07710
C4521       C  0.34860895  0.04641916  0.01268785     0.05820
C4522       C  0.35557080  0.05813685  0.99705586    -0.02730
Br4523     Br  0.34165131  0.06179192  0.97294500    -0.02430
H4524       H  0.37950824  0.07541478  0.98613901     0.09730
H4525       H  0.35491684  0.03723321  0.04242030     0.07750
Br4526     Br  0.39285455  0.05165570  0.05495315    -0.02850
C4527       C  0.44433743  0.14715729  0.03486707    -0.09490
C4528       C  0.45256833  0.15604606  0.01828888     0.06710
C4529       C  0.45026173  0.14696119  0.99988520    -0.03260
C4530       C  0.44151231  0.12853226  0.99862217    -0.07710
C4531       C  0.43489536  0.11897238  0.01544760     0.05820
C4532       C  0.43571324  0.12864336  0.03358225    -0.02730
Br4533     Br  0.42742795  0.11610813  0.05725554    -0.02430
H4534       H  0.44618665  0.15377018  0.04914154     0.09730
H4535       H  0.44077543  0.12119792  0.98460333     0.07750
Br4536     Br  0.45961704  0.15862075  0.97613700    -0.02850
C4537       C  0.46552509  0.99324055  0.04079321    -0.09490
C4538       C  0.48505209  0.99399453  0.04704761     0.06710
C4539       C  0.48880045  0.99621665  0.06715273    -0.03260
C4540       C  0.47350005  0.99466554  0.08054173    -0.07710
C4541       C  0.45381955  0.99363640  0.07438807     0.05820
C4542       C  0.45005955  0.99466343  0.05403912    -0.02730
Br4543     Br  0.42490204  0.00063341  0.04298137    -0.02430
H4544       H  0.46219432  0.99190095  0.02541826     0.09730
H4545       H  0.47735023  0.99430081  0.09584002     0.07750
Br4546     Br  0.51410466  0.00290316  0.07727794    -0.02850
C4547       C  0.47300247  0.05208399  0.02588355    -0.09490
C4548       C  0.45724001  0.04977042  0.01286202     0.06710
C4549       C  0.45740396  0.03374288  0.99983859    -0.03260
C4550       C  0.47236926  0.01988606  0.00092717    -0.07710
C4551       C  0.48758291  0.02176202  0.01454854     0.05820
C4552       C  0.48819713  0.03841752  0.02658501    -0.02730
Br4553     Br  0.50978271  0.04339864  0.04370566    -0.02430
H4554       H  0.47342487  0.06448792  0.03571502     0.09730
H4555       H  0.47182214  0.00726216  0.99144750     0.07750
Br4556     Br  0.43827530  0.03042455  0.97956842    -0.02850
C4557       C  0.49749041  0.93285031  0.06280757    -0.09490
C4558       C  0.51227766  0.93148299  0.07706723     0.06710
C4559       C  0.52784559  0.94500249  0.07662793    -0.03260
C4560       C  0.52764720  0.96008576  0.06311068    -0.07710
C4561       C  0.51309358  0.96145671  0.04884147     0.05820
C4562       C  0.49812261  0.94735077  0.04841842    -0.02730
Br4563     Br  0.47917117  0.94639946  0.02778976    -0.02430
H4564       H  0.48558379  0.92240937  0.06262289     0.09730
H4565       H  0.53921736  0.97071792  0.06358472     0.07750
Br4566     Br  0.55099989  0.94281408  0.09236127    -0.02850
C4567       C  0.51003084  0.02650817  0.95187248    -0.09490
C4568       C  0.52063438  0.04407274  0.95398082     0.06710
C4569       C  0.53076335  0.04728052  0.97182064    -0.03260
C4570       C  0.52785284  0.03474676  0.98756811    -0.07710
C4571       C  0.51776982  0.01718183  0.98529606     0.05820
C4572       C  0.50922287  0.01278464  0.96709119    -0.02730
Br4573     Br  0.49613700  0.98841372  0.96248575    -0.02430
H4574       H  0.50225674  0.02338635  0.93845839     0.09730
H4575       H  0.53424494  0.03836816  0.00155657     0.07750
Br4576     Br  0.55088649  0.06668668  0.97531230    -0.02850
C4577       C  0.54090208  0.94163359  0.01151767    -0.09490
C4578       C  0.54503702  0.95918859  0.02125273     0.06710
C4579       C  0.56320631  0.96117085  0.03079802    -0.03260
C4580       C  0.57656650  0.94569271  0.03071920    -0.07710
C4581       C  0.57295136  0.92837615  0.02016468     0.05820
C4582       C  0.55486170  0.92671484  0.01010364    -0.02730
Br4583     Br  0.54891286  0.90600296  0.99205725    -0.02430
H4584       H  0.52708501  0.94001268  0.00395160     0.09730
H4585       H  0.59005953  0.94742293  0.03880174     0.07750
Br4586     Br  0.57082267  0.98458897  0.04419344    -0.02850
C4587       C  0.57770437  0.99483583  0.97464968    -0.09490
C4588       C  0.57605298  0.97911151  0.96151731     0.06710
C4589       C  0.55971307  0.96658653  0.96286378    -0.03260
C4590       C  0.54485970  0.97085880  0.97611121    -0.07710
C4591       C  0.54671165  0.98639969  0.98933499     0.05820
C4592       C  0.56358240  0.99816120  0.98886747    -0.02730
Br4593     Br  0.56877214  0.01852896  0.00740061    -0.02430
H4594       H  0.58999847  0.00478295  0.97382565     0.09730
H4595       H  0.53206911  0.96154679  0.97660014     0.07750
Br4596     Br  0.55752602  0.94261982  0.94838014    -0.02850
C4597       C  0.25114873  0.59609539  0.93462957    -0.09490
C4598       C  0.26872536  0.60658946  0.93604197     0.06710
C4599       C  0.28484374  0.59789277  0.94517442    -0.03260
C4600       C  0.28294033  0.57945030  0.95372366    -0.07710
C4601       C  0.26487589  0.56937666  0.95391014     0.05820
C4602       C  0.24902250  0.57767434  0.94343637    -0.02730
Br4603     Br  0.22373072  0.56559786  0.94134316    -0.02430
H4604       H  0.23869211  0.60270965  0.92744931     0.09730
H4605       H  0.29551543  0.57356099  0.96129526     0.07750
Br4606     Br  0.30945100  0.61122176  0.94727947    -0.02850
C4607       C  0.33187089  0.60620101  0.04546087    -0.09490
C4608       C  0.34105935  0.60981997  0.02742929     0.06710
C4609       C  0.34060033  0.59539715  0.01282249    -0.03260
C4610       C  0.33016711  0.57818151  0.01599503    -0.07710
C4611       C  0.31996970  0.57498786  0.03355459     0.05820
C4612       C  0.32140631  0.58888886  0.04866159    -0.02730
Br4613     Br  0.30755676  0.58613059  0.07287108    -0.02430
H4614       H  0.33184473  0.61742684  0.05663829     0.09730
H4615       H  0.32933435  0.56753659  0.00428787     0.07750
Br4616     Br  0.35187494  0.59942234  0.98745129    -0.02850
C4617       C  0.32644151  0.47050531  0.10798667    -0.09490
C4618       C  0.32735428  0.48775264  0.09672985     0.06710
C4619       C  0.33883139  0.50350946  0.10384370    -0.03260
C4620       C  0.34713639  0.50241341  0.12256440    -0.07710
C4621       C  0.34422968  0.48593081  0.13435402     0.05820
C4622       C  0.33445425  0.46962975  0.12667763    -0.02730
Br4623     Br  0.33036167  0.44635034  0.14179138    -0.02430
H4624       H  0.31818369  0.45798250  0.10294356     0.09730
H4625       H  0.35494297  0.51491716  0.12838221     0.07750
Br4626     Br  0.34305443  0.52731520  0.08958379    -0.02850
C4627       C  0.23641456  0.42542387  0.11443830    -0.09490
C4628       C  0.25140594  0.43007500  0.10128817     0.06710
C4629       C  0.27019769  0.42189462  0.10417865    -0.03260
C4630       C  0.27421029  0.41105804  0.12098925    -0.07710
C4631       C  0.25968854  0.40789442  0.13495366     0.05820
C4632       C  0.24047057  0.41443321  0.13123978    -0.02730
Br4633     Br  0.21969339  0.40976754  0.14949045    -0.02430
H4634       H  0.22187312  0.43127386  0.11227529     0.09730
H4635       H  0.28898539  0.40607224  0.12370721     0.07750
Br4636     Br  0.29113815  0.42519246  0.08576311    -0.02850
C4637       C  0.99709011  0.57435175  0.33338729    -0.09490
C4638       C  0.01485440  0.56979016  0.32408674     0.06710
C4639       C  0.03013664  0.58374113  0.32451220    -0.03260
C4640       C  0.02711862  0.60197215  0.33325482    -0.07710
C4641       C  0.00910356  0.60681749  0.34172586     0.05820
C4642       C  0.99419406  0.59261922  0.34229316    -0.02730
Br4643     Br  0.96907509  0.59815833  0.35337926    -0.02430
H4644       H  0.98511007  0.56399646  0.33295868     0.09730
H4645       H  0.03864920  0.61282996  0.33263541     0.07750
Br4646     Br  0.05455970  0.58008672  0.31110685    -0.02850
C4647       C  0.96608746  0.58734862  0.26249601    -0.09490
C4648       C  0.96235731  0.57619756  0.24555672     0.06710
C4649       C  0.94756649  0.58274686  0.23261649    -0.03260
C4650       C  0.93706898  0.59994633  0.23690443    -0.07710
C4651       C  0.94093883  0.61059574  0.25401359     0.05820
C4652       C  0.95552279  0.60403587  0.26686453    -0.02730
Br4653     Br  0.96205223  0.61760383  0.29067655    -0.02430
H4654       H  0.97733204  0.58308800  0.27278099     0.09730
H4655       H  0.92618667  0.60522532  0.22670730     0.07750
Br4656     Br  0.94091920  0.56925305  0.20903202    -0.02850
C4657       C  0.13414169  0.51307609  0.32976031    -0.09490
C4658       C  0.13532326  0.49632494  0.34168971     0.06710
C4659       C  0.11854277  0.48478514  0.34436001    -0.03260
C4660       C  0.10147650  0.48924940  0.33403055    -0.07710
C4661       C  0.10078763  0.50509102  0.32094504     0.05820
C4662       C  0.11708165  0.51747711  0.31935075    -0.02730
Br4663     Br  0.11765475  0.53885472  0.30126253    -0.02430
H4664       H  0.14703681  0.52199579  0.32745905     0.09730
H4665       H  0.08897779  0.47959728  0.33535670     0.07750
Br4666     Br  0.11883760  0.46150482  0.35993004    -0.02850
C4667       C  0.10281809  0.41394126  0.24963841    -0.09490
C4668       C  0.09753332  0.42610723  0.26541574     0.06710
C4669       C  0.11064569  0.42756301  0.28151874    -0.03260
C4670       C  0.12885834  0.41846560  0.28067581    -0.07710
C4671       C  0.13459431  0.40775379  0.26427446     0.05820
C4672       C  0.12116405  0.40482841  0.24897026    -0.02730
Br4673     Br  0.12794650  0.39025069  0.22600259    -0.02430
H4674       H  0.09316281  0.41241279  0.23718713     0.09730
H4675       H  0.13909707  0.42056322  0.29259128     0.07750
Br4676     Br  0.10620247  0.44293335  0.30467989    -0.02850
C4677       C  0.93113367  0.62874266  0.02985621    -0.09490
C4678       C  0.93349984  0.61789821  0.01260524     0.06710
C4679       C  0.94307317  0.62650323  0.99665393    -0.03260
C4680       C  0.95112183  0.64513821  0.99841780    -0.07710
C4681       C  0.95057345  0.65554346  0.01622130     0.05820
C4682       C  0.93945458  0.64749656  0.03178797    -0.02730
Br4683     Br  0.93564663  0.66064619  0.05628531    -0.02430
H4684       H  0.92362872  0.62223002  0.04217358     0.09730
H4685       H  0.95912481  0.65081822  0.98603602     0.07750
Br4686     Br  0.94739116  0.61246958  0.97270077    -0.02850
C4687       C  0.88461341  0.54592393  0.01175457    -0.09490
C4688       C  0.88881079  0.56080266  0.99840587     0.06710
C4689       C  0.87580123  0.56416394  0.98284308    -0.03260
C4690       C  0.85891052  0.55249277  0.98094189    -0.07710
C4691       C  0.85511796  0.53706670  0.99410468     0.05820
C4692       C  0.86870667  0.53358850  0.00933961    -0.02730
Br4693     Br  0.86796436  0.51152013  0.02681194    -0.02430
H4694       H  0.89440320  0.54334645  0.02389573     0.09730
H4695       H  0.84875022  0.55552249  0.96920056     0.07750
Br4696     Br  0.88083931  0.58395129  0.96371835    -0.02850
C4697       C  0.00695958  0.62755305  0.94102449    -0.09490
C4698       C  0.02237775  0.61453518  0.93810351     0.06710
C4699       C  0.04125076  0.61963103  0.94471352    -0.03260
C4700       C  0.04405455  0.63668435  0.95576154    -0.07710
C4701       C  0.02819413  0.64886752  0.96020263     0.05820
C4702       C  0.00973893  0.64470634  0.95173057    -0.02730
Br4703     Br  0.98771326  0.66197726  0.95384664    -0.02430
H4704       H  0.99246951  0.62391575  0.93574029     0.09730
H4705       H  0.05843738  0.63998272  0.96151448     0.07750
Br4706     Br  0.06348284  0.60360125  0.93909280    -0.02850
C4707       C  0.98430303  0.55680164  0.88281978    -0.09490
C4708       C  0.00281265  0.56456021  0.88737438     0.06710
C4709       C  0.01828478  0.56214052  0.87409033    -0.03260
C4710       C  0.01557591  0.55065271  0.85746027    -0.07710
C4711       C  0.99748961  0.54174273  0.85358848     0.05820
C4712       C  0.98149709  0.54559868  0.86587259    -0.02730
Br4713     Br  0.95635157  0.53411068  0.86124164    -0.02430
H4714       H  0.97237159  0.55840485  0.89309792     0.09730
H4715       H  0.02795528  0.54783042  0.84799113     0.07750
Br4716     Br  0.04397748  0.57223490  0.87920508    -0.02850
C4717       C  0.09809554  0.47460699  0.87377980    -0.09490
C4718       C  0.09218068  0.49022085  0.88573583     0.06710
C4719       C  0.07907032  0.50406108  0.87820405    -0.03260
C4720       C  0.07094516  0.50135774  0.85969998    -0.07710
C4721       C  0.07518534  0.48466310  0.84832047     0.05820
C4722       C  0.08975003  0.47167576  0.85520879    -0.02730
Br4723     Br  0.09808228  0.44902184  0.84091021    -0.02430
H4724       H  0.10843326  0.46401775  0.87936544     0.09730
H4725       H  0.06032972  0.51197461  0.85472356     0.07750
Br4726     Br  0.07116200  0.52657742  0.89297080    -0.02850
C4727       C  0.14666982  0.51616791  0.94675363    -0.09490
C4728       C  0.14294889  0.49773711  0.93842785     0.06710
C4729       C  0.15682238  0.48283212  0.94041469    -0.03260
C4730       C  0.17367937  0.48616652  0.95140909    -0.07710
C4731       C  0.17703737  0.50425604  0.96068617     0.05820
C4732       C  0.16363356  0.51957910  0.95776079    -0.02730
Br4733     Br  0.16656474  0.54455880  0.97014867    -0.02430
H4734       H  0.13577700  0.52758770  0.94562568     0.09730
H4735       H  0.18393965  0.47426731  0.95327609     0.07750
Br4736     Br  0.15246106  0.45719576  0.92989686    -0.02850
C4737       C  0.85172536  0.49662714  0.08445801    -0.09490
C4738       C  0.84684358  0.48039039  0.07285629     0.06710
C4739       C  0.86035577  0.46487392  0.07120120    -0.03260
C4740       C  0.87855059  0.46617016  0.08038142    -0.07710
C4741       C  0.88370464  0.48267636  0.09136109     0.05820
C4742       C  0.86992871  0.49775828  0.09386655    -0.02730
Br4743     Br  0.87598011  0.52087661  0.10852088    -0.02430
H4744       H  0.84166535  0.50878041  0.08558254     0.09730
H4745       H  0.88912945  0.45459966  0.07819949     0.07750
Br4746     Br  0.85604332  0.44272529  0.05443520    -0.02850
C4747       C  0.93001405  0.49803827  0.15767297    -0.09490
C4748       C  0.93487467  0.48327005  0.14430411     0.06710
C4749       C  0.94742262  0.46816202  0.15029377    -0.03260
C4750       C  0.95639642  0.46904314  0.16856394    -0.07710
C4751       C  0.95330205  0.48491752  0.18134264     0.05820
C4752       C  0.93897932  0.49890846  0.17614399    -0.02730
Br4753     Br  0.93094222  0.51948890  0.19332259    -0.02430
H4754       H  0.91994407  0.50945717  0.15338288     0.09730
H4755       H  0.96679920  0.45770161  0.17217623     0.07750
Br4756     Br  0.95350543  0.44632700  0.13369446    -0.02850
C4757       C  0.01776604  0.40877806  0.15471345    -0.09490
C4758       C  0.03393022  0.40768475  0.14224100     0.06710
C4759       C  0.05147312  0.41707361  0.14770943    -0.03260
C4760       C  0.05221739  0.42830875  0.16488685    -0.07710
C4761       C  0.03548990  0.43065123  0.17656348     0.05820
C4762       C  0.01834192  0.42012648  0.17165531    -0.02730
Br4763     Br  0.99503141  0.42053293  0.18735936    -0.02430
H4764       H  0.00417448  0.40170914  0.15063641     0.09730
H4765       H  0.06559764  0.43591898  0.16862568     0.07750
Br4766     Br  0.07448159  0.41534379  0.13180422    -0.02850
C4767       C  0.15890341  0.40729645  0.99983505    -0.09490
C4768       C  0.14594053  0.40880793  0.01563118     0.06710
C4769       C  0.15257067  0.41678743  0.03340647    -0.03260
C4770       C  0.17144291  0.42447679  0.03468891    -0.07710
C4771       C  0.18381061  0.42479348  0.01830159     0.05820
C4772       C  0.17772030  0.41533762  0.00100993    -0.02730
Br4773     Br  0.19430299  0.41358877  0.97849036    -0.02430
H4774       H  0.15398830  0.40091493  0.98619812     0.09730
H4775       H  0.17581561  0.43170748  0.04809285     0.07750
Br4776     Br  0.13592246  0.41866109  0.05593921    -0.02850
C4777       C  0.01618305  0.43997131  0.04151261    -0.09490
C4778       C  0.01706698  0.45924595  0.04862306     0.06710
C4779       C  0.01825883  0.46201595  0.06897946    -0.03260
C4780       C  0.01748166  0.44598466  0.08149083    -0.07710
C4781       C  0.01886104  0.42664845  0.07445081     0.05820
C4782       C  0.01875539  0.42389526  0.05389912    -0.02730
Br4783     Br  0.02520779  0.39971084  0.04112176    -0.02430
H4784       H  0.01497043  0.43741990  0.02596029     0.09730
H4785       H  0.01684810  0.44897181  0.09698778     0.07750
Br4786     Br  0.02380564  0.48668001  0.08095700    -0.02850
C4787       C  0.07772773  0.44478309  0.02891214    -0.09490
C4788       C  0.07663759  0.43148798  0.01329981     0.06710
C4789       C  0.06078909  0.43267437  0.00016272    -0.03260
C4790       C  0.04615537  0.44641886  0.00326197    -0.07710
C4791       C  0.04746314  0.46007143  0.01850016     0.05820
C4792       C  0.06341366  0.45912862  0.03148052    -0.02730
Br4793     Br  0.06661733  0.47705893  0.05271437    -0.02430
H4794       H  0.08968640  0.44391359  0.03924926     0.09730
H4795       H  0.03378180  0.44675191  0.99341719     0.07750
Br4796     Br  0.05891228  0.41704804  0.97687515    -0.02850
C4797       C  0.07776949  0.49837972  0.97446819    -0.09490
C4798       C  0.07392043  0.48790184  0.95710883     0.06710
C4799       C  0.05607751  0.47740058  0.95580353    -0.03260
C4800       C  0.04225828  0.47889899  0.97084257    -0.07710
C4801       C  0.04662449  0.48885169  0.98823548     0.05820
C4802       C  0.06486307  0.49805943  0.99020070    -0.02730
Br4803     Br  0.07261504  0.51116620  0.01377665    -0.02430
H4804       H  0.09095402  0.50698049  0.97601643     0.09730
H4805       H  0.02833501  0.47148825  0.96936450     0.07750
Br4806     Br  0.05033071  0.45894856  0.93541160    -0.02850
C4807       C  0.96728087  0.50416345  0.07511337    -0.09490
C4808       C  0.95463235  0.48805194  0.07471055     0.06710
C4809       C  0.95811089  0.47290972  0.06120097    -0.03260
C4810       C  0.97405061  0.47410866  0.04842989    -0.07710
C4811       C  0.98691148  0.49016949  0.04889081     0.05820
C4812       C  0.98321961  0.50541473  0.06239600    -0.02730
Br4813     Br  0.99980623  0.52785476  0.06520933    -0.02430
H4814       H  0.96482869  0.51579550  0.08557674     0.09730
H4815       H  0.97641564  0.46243675  0.03799767     0.07750
Br4816     Br  0.94223247  0.44979731  0.06032527    -0.02850
C4817       C  0.96813755  0.51494023  0.01814890    -0.09490
C4818       C  0.98776893  0.52067471  0.01835163     0.06710
C4819       C  0.99212529  0.54086829  0.01767124    -0.03260
C4820       C  0.97714741  0.55442183  0.01461643    -0.07710
C4821       C  0.95736933  0.54867381  0.01462758     0.05820
C4822       C  0.95313593  0.52863726  0.01807746    -0.02730
Br4823     Br  0.92808703  0.51860666  0.02592886    -0.02430
H4824       H  0.96434791  0.49961031  0.01884485     0.09730
H4825       H  0.98119786  0.56954865  0.01258280     0.07750
Br4826     Br  0.01772964  0.55118809  0.02287813    -0.02850
C4827       C  0.03148095  0.53052059  0.98373646    -0.09490
C4828       C  0.01605374  0.51740532  0.98663488     0.06710
C4829       C  0.00060393  0.51703660  0.97302043    -0.03260
C4830       C  0.99993989  0.53104772  0.95812035    -0.07710
C4831       C  0.01516057  0.54472250  0.95586381     0.05820
C4832       C  0.03156981  0.54350074  0.96821509    -0.02730
Br4833     Br  0.05529004  0.55788644  0.96404311    -0.02430
H4834       H  0.04353788  0.53092125  0.99382826     0.09730
H4835       H  0.98751286  0.53126148  0.94831909     0.07750
Br4836     Br  0.98080674  0.49718598  0.97352150    -0.02850
C4837       C  0.27496895  0.10399735  0.45285937    -0.09490
C4838       C  0.26182037  0.10958762  0.43825057     0.06710
C4839       C  0.24474549  0.09830407  0.43532619    -0.03260
C4840       C  0.24114218  0.08192752  0.44714824    -0.07710
C4841       C  0.25377510  0.07717446  0.46262955     0.05820
C4842       C  0.27056545  0.08897895  0.46572384    -0.02730
Br4843     Br  0.28703321  0.08772839  0.48851355    -0.02430
H4844       H  0.28790710  0.11276025  0.45558134     0.09730
H4845       H  0.22823114  0.07315553  0.44446124     0.07750
Br4846     Br  0.22503273  0.10544453  0.41672222    -0.02850
C4847       C  0.32947653  0.07958313  0.53538794    -0.09490
C4848       C  0.32936417  0.06729206  0.51889901     0.06710
C4849       C  0.33861504  0.07380489  0.50163158    -0.03260
C4850       C  0.34619510  0.09283520  0.50062461    -0.07710
C4851       C  0.34453124  0.10561262  0.51656558     0.05820
C4852       C  0.33675404  0.09864031  0.53426756    -0.02730
Br4853     Br  0.33466177  0.11506048  0.55694756    -0.02430
H4854       H  0.32240831  0.07498254  0.54878486     0.09730
H4855       H  0.35244554  0.09800807  0.48703720     0.07750
Br4856     Br  0.34069874  0.05758705  0.47885259    -0.02850
C4857       C  0.24676450  0.90628607  0.62140423    -0.09490
C4858       C  0.26322887  0.90892638  0.63329494     0.06710
C4859       C  0.28002320  0.91775514  0.62556106    -0.03260
C4860       C  0.27976820  0.92511732  0.60665077    -0.07710
C4861       C  0.26267999  0.92448992  0.59514541     0.05820
C4862       C  0.24631723  0.91394982  0.60236944    -0.02730
Br4863     Br  0.22269436  0.91002086  0.58769415    -0.02430
H4864       H  0.23397054  0.89898553  0.62721967     0.09730
H4865       H  0.29274204  0.93262417  0.60154791     0.07750
Br4866     Br  0.30335048  0.92129161  0.64082040    -0.02850
C4867       C  0.32753362  0.98478284  0.60871571    -0.09490
C4868       C  0.31962927  0.00317086  0.60394510     0.06710
C4869       C  0.32421085  0.01936758  0.61589831    -0.03260
C4870       C  0.33554670  0.01665476  0.63275213    -0.07710
C4871       C  0.34270058  0.99809569  0.63777363     0.05820
C4872       C  0.33895251  0.98218067  0.62540076    -0.02730
Br4873     Br  0.34774170  0.95630851  0.63159870    -0.02430
H4874       H  0.32450321  0.97218057  0.59960496     0.09730
H4875       H  0.33798628  0.02888472  0.64252470     0.07750
Br4876     Br  0.31400318  0.04502680  0.61115624    -0.02850
C4877       C  0.00070380  0.91656139  0.65398611    -0.09490
C4878       C  0.01748904  0.91060063  0.64390344     0.06710
C4879       C  0.03576105  0.91150184  0.65334363    -0.03260
C4880       C  0.03721522  0.91956341  0.67211470    -0.07710
C4881       C  0.02061263  0.92687464  0.68171561     0.05820
C4882       C  0.00211708  0.92447800  0.67282634    -0.02730
Br4883     Br  0.97837001  0.93166405  0.68588177    -0.02430
H4884       H  0.98652768  0.91545790  0.64701195     0.09730
H4885       H  0.05154921  0.92137550  0.67860616     0.07750
Br4886     Br  0.05930141  0.90336304  0.64047144    -0.02850
C4887       C  0.03137320  0.84634396  0.59212588    -0.09490
C4888       C  0.01459984  0.85796784  0.59339934     0.06710
C4889       C  0.99642520  0.85007718  0.58785698    -0.03260
C4890       C  0.99544480  0.83134096  0.57971851    -0.07710
C4891       C  0.01247905  0.82024826  0.57672738     0.05820
C4892       C  0.03045158  0.82757387  0.58394463    -0.02730
Br4893     Br  0.05425944  0.81282325  0.58276753    -0.02430
H4894       H  0.04534709  0.85218674  0.59677277     0.09730
H4895       H  0.98148425  0.82610256  0.57436219     0.07750
Br4896     Br  0.97275002  0.86494361  0.58994203    -0.02850
C4897       C  0.93872067  0.01363634  0.65131264    -0.09490
C4898       C  0.93856352  0.99526160  0.64210240     0.06710
C4899       C  0.94971870  0.97999592  0.64995119    -0.03260
C4900       C  0.96184214  0.98355220  0.66584516    -0.07710
C4901       C  0.96317825  0.00220602  0.67440742     0.05820
C4902       C  0.95077559  0.01716574  0.66758516    -0.02730
Br4903     Br  0.95113645  0.04298386  0.67847424    -0.02430
H4904       H  0.93050247  0.02559384  0.64502192     0.09730
H4905       H  0.97082849  0.97169431  0.67114035     0.07750
Br4906     Br  0.95060883  0.95458818  0.63799242    -0.02850
C4907       C  0.85556944  0.98371803  0.58077371    -0.09490
C4908       C  0.85661548  0.96955396  0.56596328     0.06710
C4909       C  0.87357407  0.95830132  0.56391296    -0.03260
C4910       C  0.88967548  0.96216113  0.57587046    -0.07710
C4911       C  0.88941893  0.97774289  0.58938930     0.05820
C4912       C  0.87185479  0.98800221  0.59240080    -0.02730
Br4913     Br  0.87001792  0.00969769  0.61006501    -0.02430
H4914       H  0.84250538  0.99252357  0.58228418     0.09730
H4915       H  0.90305464  0.95405347  0.57344570     0.07750
Br4916     Br  0.87596615  0.93895106  0.54376889    -0.02850
C4917       C  0.86072493  0.05187736  0.48973902    -0.09490
C4918       C  0.84799164  0.04887628  0.50555682     0.06710
C4919       C  0.85292412  0.05664881  0.52396128    -0.03260
C4920       C  0.87091230  0.06608567  0.52662544    -0.07710
C4921       C  0.88441803  0.06748092  0.51124859     0.05820
C4922       C  0.87893898  0.06088664  0.49250284    -0.02730
Br4923     Br  0.89638090  0.06270672  0.47061061    -0.02430
H4924       H  0.85717934  0.04583460  0.47552987     0.09730
H4925       H  0.87497190  0.07101403  0.54111965     0.07750
Br4926     Br  0.83598137  0.05370711  0.54608453    -0.02850
C4927       C  0.09381286  0.84567423  0.51639118    -0.09490
C4928       C  0.09276154  0.86036953  0.50225962     0.06710
C4929       C  0.08239196  0.85678124  0.48474311    -0.03260
C4930       C  0.07193388  0.83932155  0.48235858    -0.07710
C4931       C  0.07151738  0.82541375  0.49735005     0.05820
C4932       C  0.08331964  0.82830113  0.51407609    -0.02730
Br4933     Br  0.08546049  0.80909817  0.53441266    -0.02430
H4934       H  0.10181009  0.84820691  0.52982688     0.09730
H4935       H  0.06326682  0.83711775  0.46928982     0.07750
Br4936     Br  0.08136419  0.87573522  0.46410836    -0.02850
C4937       C  0.15674758  0.91267722  0.50677756    -0.09490
C4938       C  0.14354883  0.91038915  0.52216917     0.06710
C4939       C  0.14861463  0.91734849  0.54091309    -0.03260
C4940       C  0.16600024  0.92789026  0.54364254    -0.07710
C4941       C  0.17845872  0.93164184  0.52780601     0.05820
C4942       C  0.17415764  0.92301769  0.50944936    -0.02730
Br4943     Br  0.19143456  0.92465659  0.48733774    -0.02430
H4944       H  0.15305172  0.90722403  0.49236975     0.09730
H4945       H  0.16931469  0.93388992  0.55791743     0.07750
Br4946     Br  0.13189673  0.91318108  0.56299944    -0.02850
C4947       C  0.14810841  0.97945663  0.45344727    -0.09490
C4948       C  0.14497840  0.98889135  0.43561458     0.06710
C4949       C  0.16064187  0.99936425  0.42710802    -0.03260
C4950       C  0.17893909  0.00023718  0.43677462    -0.07710
C4951       C  0.18161805  0.99110212  0.45504729     0.05820
C4952       C  0.16551608  0.98132701  0.46355840    -0.02730
Br4953     Br  0.16457203  0.97289066  0.49032806    -0.02430
H4954       H  0.13635533  0.97132343  0.46024644     0.09730
H4955       H  0.19087084  0.00832511  0.43023711     0.07750
Br4956     Br  0.15740624  0.01358081  0.40324084    -0.02850
C4957       C  0.02948521  0.03002858  0.48056303    -0.09490
C4958       C  0.01293120  0.01789007  0.48217753     0.06710
C4959       C  0.99697265  0.02126245  0.46941701    -0.03260
C4960       C  0.99791264  0.03637334  0.45563266    -0.07710
C4961       C  0.01444728  0.04843246  0.45418468     0.05820
C4962       C  0.03034976  0.04511841  0.46680196    -0.02730
Br4963     Br  0.05403011  0.06006498  0.46511759    -0.02430
H4964       H  0.04186646  0.02776232  0.49015703     0.09730
H4965       H  0.98572215  0.03859353  0.44577980     0.07750
Br4966     Br  0.97421934  0.00478878  0.46861420    -0.02850
C4967       C  0.05537471  0.98654972  0.44809329    -0.09490
C4968       C  0.07502319  0.98596949  0.45432481     0.06710
C4969       C  0.07866648  0.98658876  0.47474663    -0.03260
C4970       C  0.06312371  0.98897329  0.48776493    -0.07710
C4971       C  0.04363980  0.98754893  0.48151204     0.05820
C4972       C  0.03993327  0.98580539  0.46135002    -0.02730
Br4973     Br  0.01469448  0.98001098  0.45074162    -0.02430
H4974       H  0.05171912  0.98667819  0.43272989     0.09730
H4975       H  0.06628507  0.99051769  0.50318529     0.07750
Br4976     Br  0.10344143  0.98114202  0.48678897    -0.02850
C4977       C  0.97312690  0.05032396  0.51933662    -0.09490
C4978       C  0.95336718  0.04435722  0.52075951     0.06710
C4979       C  0.94928909  0.02410649  0.51962661    -0.03260
C4980       C  0.96421588  0.01108867  0.51488781    -0.07710
C4981       C  0.98386965  0.01702150  0.51436325     0.05820
C4982       C  0.98825883  0.03678291  0.51774741    -0.02730
Br4983     Br  0.01429614  0.04581459  0.52300849    -0.02430
H4984       H  0.97720102  0.06555831  0.52002934     0.09730
H4985       H  0.96057558  0.99587701  0.51281230     0.07750
Br4986     Br  0.92492816  0.01239239  0.52741768    -0.02850
C4987       C  0.05862294  0.95859302  0.52597410    -0.09490
C4988       C  0.04408041  0.95751743  0.51161636     0.06710
C4989       C  0.04424172  0.94201388  0.49820110    -0.03260
C4990       C  0.05947994  0.92852688  0.49861791    -0.07710
C4991       C  0.07396824  0.92932485  0.51323329     0.05820
C4992       C  0.07301475  0.94432212  0.52741459    -0.02730
Br4993     Br  0.08920752  0.94530887  0.55032138    -0.02430
H4994       H  0.05849258  0.97042444  0.53643307     0.09730
H4995       H  0.05973185  0.91713260  0.48763581     0.07750
Br4996     Br  0.02331843  0.93776951  0.48010018    -0.02850
C4997       C  0.00799679  0.93902202  0.53920877    -0.09490
C4998       C  0.01601328  0.95749606  0.54282211     0.06710
C4999       C  0.02424093  0.96124524  0.56132099    -0.03260
C5000       C  0.02458857  0.94651722  0.57558107    -0.07710
C5001       C  0.01554842  0.92820924  0.57243573     0.05820
C5002       C  0.00649710  0.92498166  0.55401298    -0.02730
Br5003     Br  0.98933967  0.90338689  0.54849652    -0.02430
H5004       H  0.00184687  0.93587026  0.52497998     0.09730
H5005       H  0.03191271  0.94958564  0.58925615     0.07750
Br5006     Br  0.03546282  0.98614433  0.56774463    -0.02850
C5007       C  0.95709963  0.97605349  0.55967264    -0.09490
C5008       C  0.95774553  0.99172578  0.57293867     0.06710
C5009       C  0.97310319  0.00544436  0.57165016    -0.03260
C5010       C  0.98763025  0.00293631  0.55758289    -0.07710
C5011       C  0.98652470  0.98760329  0.54402081     0.05820
C5012       C  0.97083917  0.97433262  0.54486441    -0.02730
Br5013     Br  0.96552879  0.95565150  0.52457663    -0.02430
H5014       H  0.94538242  0.96541379  0.56033927     0.09730
H5015       H  0.99925739  0.01363527  0.55644765     0.07750
Br5016     Br  0.97396570  0.02894596  0.58697373    -0.02850
C5017       C  0.96241910  0.13459349  0.51473329    -0.09490
C5018       C  0.96426562  0.14551539  0.53202393     0.06710
C5019       C  0.95279567  0.14023819  0.54839080    -0.03260
C5020       C  0.94027946  0.12395130  0.54731166    -0.07710
C5021       C  0.93895097  0.11293310  0.53007641     0.05820
C5022       C  0.95004926  0.11848838  0.51368737    -0.02730
Br5023     Br  0.95001270  0.10350888  0.48990393    -0.02430
H5024       H  0.97088965  0.13841541  0.50190970     0.09730
H5025       H  0.93232772  0.11932215  0.56018682     0.07750
Br5026     Br  0.95509590  0.15325830  0.57306383    -0.02850
C5027       C  0.03617482  0.12862198  0.43445331    -0.09490
C5028       C  0.01814000  0.11886828  0.43491146     0.06710
C5029       C  0.00179106  0.12843104  0.44281697    -0.03260
C5030       C  0.00391838  0.14684894  0.45143718    -0.07710
C5031       C  0.02226995  0.15613734  0.45240187     0.05820
C5032       C  0.03839667  0.14711121  0.44310541    -0.02730
Br5033     Br  0.06431342  0.15789626  0.44384746    -0.02430
H5034       H  0.04883736  0.12132792  0.42837435     0.09730
H5035       H  0.99133123  0.15347765  0.45837938     0.07750
Br5036     Br  0.97646196  0.11639380  0.44295586    -0.02850
C5037       C  0.95623515  0.25289589  0.60451002    -0.09490
C5038       C  0.95335425  0.23537877  0.59403614     0.06710
C5039       C  0.93921916  0.22203193  0.60110435    -0.03260
C5040       C  0.93075788  0.22496762  0.61957579    -0.07710
C5041       C  0.93583737  0.24121279  0.63105680     0.05820
C5042       C  0.94768700  0.25585320  0.62283685    -0.02730
Br5043     Br  0.95317928  0.27980265  0.63645420    -0.02430
H5044       H  0.96620838  0.26388856  0.59899072     0.09730
H5045       H  0.92114726  0.21387165  0.62551523     0.07750
Br5046     Br  0.93177170  0.19888222  0.58722121    -0.02850
C5047       C  0.01414802  0.29673300  0.63729067    -0.09490
C5048       C  0.02683923  0.31255735  0.63998387     0.06710
C5049       C  0.04127748  0.31621347  0.62573410    -0.03260
C5050       C  0.04313748  0.30356991  0.60958607    -0.07710
C5051       C  0.03160404  0.28653507  0.60805558     0.05820
C5052       C  0.01722658  0.28308049  0.62264494    -0.02730
Br5053     Br  0.00240902  0.25929709  0.62578853    -0.02430
H5054       H  0.00299312  0.29372074  0.64814356     0.09730
H5055       H  0.05414975  0.30666847  0.59865348     0.07750
Br5056     Br  0.05965976  0.33720703  0.62838780    -0.02850
C5057       C  0.12310538  0.24455781  0.43661176    -0.09490
C5058       C  0.13847574  0.23110512  0.43622964     0.06710
C5059       C  0.13606934  0.21286531  0.44568086    -0.03260
C5060       C  0.11948965  0.20933323  0.45718363    -0.07710
C5061       C  0.10513872  0.22372535  0.45919192     0.05820
C5062       C  0.10648824  0.24093776  0.44795958    -0.02730
Br5063     Br  0.08640658  0.26044289  0.44868034    -0.02430
H5064       H  0.12469310  0.25855208  0.42940007     0.09730
H5065       H  0.11842461  0.19591231  0.46549472     0.07750
Br5066     Br  0.15582144  0.19299707  0.44451235    -0.02850
C5067       C  0.12405086  0.31610046  0.50530791    -0.09490
C5068       C  0.13529535  0.31849339  0.52230125     0.06710
C5069       C  0.12734630  0.31289079  0.54041861    -0.03260
C5070       C  0.10892077  0.30393343  0.54116200    -0.07710
C5071       C  0.09837469  0.30001828  0.52395387     0.05820
C5072       C  0.10579706  0.30682395  0.50599429    -0.02730
Br5073     Br  0.09174381  0.30344261  0.48199703    -0.02430
H5074       H  0.12999024  0.32043865  0.49128986     0.09730
H5075       H  0.10347341  0.29875710  0.55509283     0.07750
Br5076     Br  0.14161984  0.31628260  0.56431341    -0.02850
C5077       C  0.54784787  0.41811635  0.64565796    -0.09490
C5078       C  0.52911616  0.41263697  0.63921705     0.06710
C5079       C  0.51268732  0.41783717  0.65027577    -0.03260
C5080       C  0.51495233  0.42964657  0.66671553    -0.07710
C5081       C  0.53354061  0.43616452  0.67261548     0.05820
C5082       C  0.55019055  0.42964618  0.66246376    -0.02730
Br5083     Br  0.57604407  0.43766204  0.66975944    -0.02430
H5084       H  0.56055370  0.41428890  0.63703027     0.09730
H5085       H  0.50203344  0.43424426  0.67464053     0.07750
Br5086     Br  0.48683702  0.41006677  0.64265272    -0.02850
C5087       C  0.53404223  0.34410602  0.59321476    -0.09490
C5088       C  0.51909317  0.35798777  0.59173534     0.06710
C5089       C  0.50053025  0.35212348  0.58498649    -0.03260
C5090       C  0.49764126  0.33304138  0.57827688    -0.07710
C5091       C  0.51314565  0.31961929  0.57783532     0.05820
C5092       C  0.53122572  0.32503098  0.58627431    -0.02730
Br5093     Br  0.55272853  0.30715655  0.58803128    -0.02430
H5094       H  0.54821782  0.34837574  0.59884582     0.09730
H5095       H  0.48366441  0.32925464  0.57184724     0.07750
Br5096     Br  0.47893409  0.36998397  0.58370497    -0.02850
C5097       C  0.53043704  0.65049725  0.44413864    -0.09490
C5098       C  0.51352970  0.65803767  0.45321257     0.06710
C5099       C  0.49570968  0.64761059  0.45081511    -0.03260
C5100       C  0.49564969  0.62931765  0.44175721    -0.07710
C5101       C  0.51286272  0.62110914  0.43452183     0.05820
C5102       C  0.53018505  0.63218758  0.43486588    -0.02730
Br5103     Br  0.55414924  0.62206384  0.42447808    -0.02430
H5104       H  0.54424676  0.65814893  0.44540615     0.09730
H5105       H  0.48220254  0.62093640  0.44126140     0.07750
Br5106     Br  0.47081273  0.65651024  0.46014879    -0.02850
C5107       C  0.52290948  0.54908585  0.38306411    -0.09490
C5108       C  0.50949325  0.56379389  0.38764213     0.06710
C5109       C  0.49272869  0.56596986  0.37586588    -0.03260
C5110       C  0.48962268  0.55332493  0.35995027    -0.07710
C5111       C  0.50272401  0.53799064  0.35585205     0.05820
C5112       C  0.51947941  0.53590271  0.36796858    -0.02730
Br5113     Br  0.53784354  0.51463694  0.36653590    -0.02430
H5114       H  0.53556150  0.54692549  0.39236047     0.09730
H5115       H  0.47679442  0.55538331  0.35091812     0.07750
Br5116     Br  0.47298789  0.58493241  0.38177196    -0.02850
C5117       C  0.64246715  0.48534359  0.45571673    -0.09490
C5118       C  0.64073508  0.49579602  0.43824869     0.06710
C5119       C  0.65748350  0.50484113  0.43034452    -0.03260
C5120       C  0.67537703  0.50371046  0.44037360    -0.07710
C5121       C  0.67691288  0.49375687  0.45833911     0.05820
C5122       C  0.65998643  0.48450827  0.46592083    -0.02730
Br5123     Br  0.65825930  0.47203303  0.49095716    -0.02430
H5124       H  0.62977169  0.47810112  0.46185447     0.09730
H5125       H  0.68799718  0.51113659  0.43435318     0.07750
Br5126     Br  0.65650860  0.52009194  0.40688644    -0.02850
C5127       C  0.58450309  0.46484830  0.37832876    -0.09490
C5128       C  0.59415999  0.48221075  0.38332968     0.06710
C5129       C  0.59662917  0.49681497  0.36900797    -0.03260
C5130       C  0.58821017  0.49448891  0.35053456    -0.07710
C5131       C  0.57732552  0.47773180  0.34595486     0.05820
C5132       C  0.57609843  0.46246959  0.35984440    -0.02730
Br5133     Br  0.56058599  0.43937257  0.35579348    -0.02430
H5134       H  0.58238878  0.45362383  0.38928602     0.09730
H5135       H  0.58901403  0.50641239  0.34016559     0.07750
Br5136     Br  0.60895362  0.52137936  0.37465358    -0.02850
C5137       C  0.43254740  0.50577233  0.65679796    -0.09490
C5138       C  0.43683734  0.49016643  0.64421759     0.06710
C5139       C  0.44860715  0.47480694  0.65105464    -0.03260
C5140       C  0.45725623  0.47602082  0.66948405    -0.07710
C5141       C  0.45460891  0.49251553  0.68152908     0.05820
C5142       C  0.44127566  0.50711720  0.67533731    -0.02730
Br5143     Br  0.43545806  0.53009664  0.69038325    -0.02430
H5144       H  0.42323096  0.51751687  0.65175022     0.09730
H5145       H  0.46695251  0.46435023  0.67395553     0.07750
Br5146     Br  0.45374892  0.45204029  0.63549176    -0.02850
C5147       C  0.37141978  0.50333591  0.59397654    -0.09490
C5148       C  0.38408590  0.48726509  0.59345574     0.06710
C5149       C  0.37727615  0.46935005  0.58596269    -0.03260
C5150       C  0.35854283  0.46807909  0.57786772    -0.07710
C5151       C  0.34641692  0.48461094  0.57668951     0.05820
C5152       C  0.35271542  0.50216524  0.58563239    -0.02730
Br5153     Br  0.33659580  0.52506809  0.58650390    -0.02430
H5154       H  0.37643724  0.51709068  0.60002335     0.09730
H5155       H  0.35410358  0.45446578  0.57108794     0.07750
Br5156     Br  0.39355984  0.44653187  0.58540404    -0.02850
C5157       C  0.43489848  0.63330717  0.51582839    -0.09490
C5158       C  0.43680730  0.61802739  0.52924440     0.06710
C5159       C  0.44730871  0.62129014  0.54674579    -0.03260
C5160       C  0.45785656  0.63865101  0.54935102    -0.07710
C5161       C  0.45755892  0.65310342  0.53491760     0.05820
C5162       C  0.44487772  0.65090388  0.51876025    -0.02730
Br5163     Br  0.44031024  0.67177946  0.50061924    -0.02430
H5164       H  0.42629857  0.63128797  0.50268493     0.09730
H5165       H  0.46686064  0.64051057  0.56224227     0.07750
Br5166     Br  0.44743093  0.60254158  0.56754714    -0.02850
C5167       C  0.37016842  0.56860292  0.52195062    -0.09490
C5168       C  0.38535656  0.56897930  0.50832533     0.06710
C5169       C  0.38274290  0.55968139  0.49003916    -0.03260
C5170       C  0.36576201  0.54882149  0.48632120    -0.07710
C5171       C  0.35139621  0.54689244  0.50075965     0.05820
C5172       C  0.35327124  0.55768908  0.51831345    -0.02730
Br5173     Br  0.33339071  0.55768796  0.53812832    -0.02430
H5174       H  0.37201730  0.57566961  0.53600447     0.09730
H5175       H  0.36437701  0.54089767  0.47267755     0.07750
Br5176     Br  0.40269859  0.56021756  0.47032022    -0.02850
C5177       C  0.64078260  0.42437944  0.54025309    -0.09490
C5178       C  0.64010125  0.41199483  0.52381452     0.06710
C5179       C  0.65742848  0.40833136  0.51335760    -0.03260
C5180       C  0.67455521  0.41834727  0.51836677    -0.07710
C5181       C  0.67461207  0.43218561  0.53351160     0.05820
C5182       C  0.65780202  0.43468541  0.54495489    -0.02730
Br5183     Br  0.65690063  0.45358464  0.56564045    -0.02430
H5184       H  0.62758279  0.42725912  0.54848806     0.09730
H5185       H  0.68739969  0.41664537  0.50926227     0.07750
Br5186     Br  0.65785704  0.39225141  0.49039200    -0.02850
C5187       C  0.58214386  0.33233306  0.48867005    -0.09490
C5188       C  0.56499505  0.32910941  0.49957433     0.06710
C5189       C  0.55909098  0.34339420  0.51334201    -0.03260
C5190       C  0.57049143  0.35992834  0.51631639    -0.07710
C5191       C  0.58731692  0.36339764  0.50519688     0.05820
C5192       C  0.59322036  0.34944064  0.49128563    -0.02730
Br5193     Br  0.61556090  0.35361467  0.47492116    -0.02430
H5194       H  0.58697723  0.32153622  0.47815701     0.09730
H5195       H  0.56556020  0.37081767  0.52672191     0.07750
Br5196     Br  0.53479553  0.34252311  0.52756497    -0.02850
C5197       C  0.52187047  0.46098354  0.55600778    -0.09490
C5198       C  0.51270890  0.45541349  0.53858265     0.06710
C5199       C  0.50789520  0.43563068  0.53577325    -0.03260
C5200       C  0.51041899  0.42229456  0.55104453    -0.07710
C5201       C  0.52010730  0.42759440  0.56850300     0.05820
C5202       C  0.52701671  0.44714959  0.57010477    -0.02730
Br5203     Br  0.54629462  0.45571992  0.58875479    -0.02430
H5204       H  0.52665489  0.47598264  0.55780896     0.09730
H5205       H  0.50495123  0.40764834  0.54885186     0.07750
Br5206     Br  0.49895600  0.42565547  0.51115868    -0.02850
C5207       C  0.55448825  0.45830063  0.52226681    -0.09490
C5208       C  0.54102634  0.45873988  0.50685094     0.06710
C5209       C  0.54394636  0.44646981  0.49058193    -0.03260
C5210       C  0.56022859  0.43421459  0.49001331    -0.07710
C5211       C  0.57335456  0.43337610  0.50579875     0.05820
C5212       C  0.57019074  0.44547465  0.52218514    -0.02730
Br5213     Br  0.58524012  0.44400863  0.54585545    -0.02430
H5214       H  0.55277436  0.46802681  0.53458531     0.09730
H5215       H  0.56226559  0.42474498  0.47748702     0.07750
Br5216     Br  0.52564483  0.44492352  0.46937227    -0.02850
C5217       C  0.48441241  0.49823782  0.55703604    -0.09490
C5218       C  0.48149721  0.48425705  0.54226079     0.06710
C5219       C  0.46507207  0.47184627  0.54355355    -0.03260
C5220       C  0.45179633  0.47395426  0.55895585    -0.07710
C5221       C  0.45416118  0.48857236  0.57318424     0.05820
C5222       C  0.47073871  0.50085821  0.57205921    -0.02730
Br5223     Br  0.47456645  0.52271494  0.58924923    -0.02430
H5224       H  0.49703643  0.50776775  0.55639982     0.09730
H5225       H  0.43935467  0.46417302  0.55969522     0.07750
Br5226     Br  0.45928740  0.45216369  0.52460577    -0.02850
C5227       C  0.48481648  0.53224828  0.52494909    -0.09490
C5228       C  0.47932469  0.51572567  0.51423278     0.06710
C5229       C  0.46056235  0.51477690  0.50611004    -0.03260
C5230       C  0.44848512  0.53102639  0.50699015    -0.07710
C5231       C  0.45331875  0.54749711  0.51846624     0.05820
C5232       C  0.47166063  0.54747164  0.52823358    -0.02730
Br5233     Br  0.47947595  0.56575734  0.54802546    -0.02430
H5234       H  0.49917162  0.53281991  0.53161900     0.09730
H5235       H  0.43501881  0.53031729  0.49877716     0.07750
Br5236     Br  0.44978937  0.49152746  0.49487956    -0.02850
C5237       C  0.52075068  0.53517290  0.48743001    -0.09490
C5238       C  0.50771314  0.51971523  0.48379632     0.06710
C5239       C  0.49534077  0.52061884  0.46742447    -0.03260
C5240       C  0.49557535  0.53704457  0.45554267    -0.07710
C5241       C  0.50936693  0.55202749  0.45830961     0.05820
C5242       C  0.52207527  0.55102612  0.47454019    -0.02730
Br5243     Br  0.54288364  0.56939330  0.47865431    -0.02430
H5244       H  0.53063671  0.53435262  0.49976730     0.09730
H5245       H  0.48580473  0.53740593  0.44308609     0.07750
Br5246     Br  0.48044996  0.49872560  0.45826686    -0.02850
C5247       C  0.53503311  0.49250090  0.46029936    -0.09490
C5248       C  0.53960110  0.49210732  0.48026364     0.06710
C5249       C  0.55907806  0.49571988  0.48574158    -0.03260
C5250       C  0.57379874  0.49599123  0.47155098    -0.07710
C5251       C  0.56941060  0.49593362  0.45131277     0.05820
C5252       C  0.54930885  0.49603723  0.44609892    -0.02730
Br5253     Br  0.53946447  0.50418666  0.42108922    -0.02430
H5254       H  0.52010724  0.49069700  0.45566702     0.09730
H5255       H  0.58864120  0.49653342  0.47681408     0.07750
Br5256     Br  0.56612368  0.50277359  0.51195316    -0.02850
C5257       C  0.92333071  0.05338735  0.27019323    -0.09490
C5258       C  0.92428554  0.04082674  0.28637089     0.06710
C5259       C  0.90864279  0.04050381  0.29969157    -0.03260
C5260       C  0.89166158  0.05131050  0.29562633    -0.07710
C5261       C  0.89006560  0.06251127  0.27839339     0.05820
C5262       C  0.90650900  0.06413743  0.26610511    -0.02730
Br5263     Br  0.90596385  0.07824088  0.24185420    -0.02430
H5264       H  0.93537504  0.05389472  0.25991729     0.09730
H5265       H  0.87910507  0.04975796  0.30514211     0.07750
Br5266     Br  0.90881591  0.02371696  0.32208605    -0.02850
C5267       C  0.89675079  0.96766559  0.19503864    -0.09490
C5268       C  0.89051483  0.98553675  0.18731241     0.06710
C5269       C  0.90317501  0.00175383  0.18801361    -0.03260
C5270       C  0.92136063  0.00015643  0.19733164    -0.07710
C5271       C  0.92734704  0.98244785  0.20584227     0.05820
C5272       C  0.91495218  0.96593350  0.20418351    -0.02730
Br5273     Br  0.92064413  0.94119046  0.21616648    -0.02430
H5274       H  0.88702607  0.95515692  0.19464896     0.09730
H5275       H  0.93051338  0.01301968  0.19864220     0.07750
Br5276     Br  0.89553911  0.02675399  0.17797708    -0.02850
C5277       C  0.08923805  0.90007378  0.27485714    -0.09490
C5278       C  0.07362333  0.90344774  0.26179026     0.06710
C5279       C  0.06929736  0.88877150  0.24771082    -0.03260
C5280       C  0.08018175  0.87165703  0.24705064    -0.07710
C5281       C  0.09479844  0.86787223  0.26071751     0.05820
C5282       C  0.09966739  0.88232552  0.27451486    -0.02730
Br5283     Br  0.11942185  0.87777805  0.29380139    -0.02430
H5284       H  0.09273263  0.91081801  0.28595267     0.09730
H5285       H  0.07606991  0.86034324  0.23671659     0.07750
Br5286     Br  0.04683006  0.88865187  0.23088629    -0.02850
C5287       C  0.01164201  0.87896369  0.18548409    -0.09490
C5288       C  0.99776104  0.86404492  0.18734766     0.06710
C5289       C  0.98037199  0.86782819  0.19779687    -0.03260
C5290       C  0.97829836  0.88527661  0.20832589    -0.07710
C5291       C  0.99316595  0.89935504  0.20806959     0.05820
C5292       C  0.00925146  0.89668234  0.19538296    -0.02730
Br5293     Br  0.02813959  0.91695708  0.19068656    -0.02430
H5294       H  0.02474657  0.87655463  0.17693558     0.09730
H5295       H  0.96539978  0.88753179  0.21721862     0.07750
Br5296     Br  0.95885381  0.84995718  0.19756992    -0.02850
C5297       C  0.06805442  0.98461074  0.36321790    -0.09490
C5298       C  0.06858709  0.96703632  0.35247026     0.06710
C5299       C  0.08185159  0.95230352  0.35859241    -0.03260
C5300       C  0.09324189  0.95511982  0.37556393    -0.07710
C5301       C  0.09201035  0.97256768  0.38628471     0.05820
C5302       C  0.07956381  0.98747170  0.37967541    -0.02730
Br5303     Br  0.07693568  0.01194426  0.39327823    -0.02430
H5304       H  0.05846055  0.99644775  0.35900024     0.09730
H5305       H  0.10260007  0.94346602  0.38072382     0.07750
Br5306     Br  0.08514957  0.92805444  0.34489646    -0.02850
C5307       C  0.99598577  0.06425435  0.37465804    -0.09490
C5308       C  0.01419738  0.06640473  0.38372082     0.06710
C5309       C  0.03107904  0.06011963  0.37392683    -0.03260
C5310       C  0.02946957  0.05056495  0.35590454    -0.07710
C5311       C  0.01108175  0.04695437  0.34728347     0.05820
C5312       C  0.99421694  0.05473303  0.35659084    -0.02730
Br5313     Br  0.96802899  0.05159867  0.34684863    -0.02430
H5314       H  0.98293349  0.06912741  0.38217945     0.09730
H5315       H  0.04266419  0.04505421  0.34912968     0.07750
Br5316     Br  0.05650722  0.06324770  0.38531756    -0.02850
C5317       C  0.07928091  0.26191736  0.92196329    -0.09490
C5318       C  0.07611274  0.24565420  0.93407421     0.06710
C5319       C  0.08203806  0.22703482  0.92750409    -0.03260
C5320       C  0.08979555  0.22475712  0.90869746    -0.07710
C5321       C  0.09153601  0.24080052  0.89610822     0.05820
C5322       C  0.08671024  0.25957031  0.90301033    -0.02730
Br5323     Br  0.08843885  0.28208462  0.88642354    -0.02430
H5324       H  0.07443681  0.27625580  0.92660632     0.09730
H5325       H  0.09354156  0.21027381  0.90352586     0.07750
Br5326     Br  0.07893723  0.20416384  0.94339307    -0.02850
C5327       C  0.02007403  0.18600113  0.91335981    -0.09490
C5328       C  0.00224132  0.18556544  0.92364989     0.06710
C5329       C  0.98776258  0.17198459  0.91791445    -0.03260
C5330       C  0.99090653  0.16019316  0.90139950    -0.07710
C5331       C  0.00833597  0.16162928  0.89065351     0.05820
C5332       C  0.02315797  0.17429247  0.89704834    -0.02730
Br5333     Br  0.04751200  0.17691792  0.88329271    -0.02430
H5334       H  0.03170742  0.19581673  0.91778916     0.09730
H5335       H  0.97931170  0.15067125  0.89630140     0.07750
Br5336     Br  0.96295255  0.16998274  0.93082499    -0.02850
C5337       C  0.92279702  0.17074343  0.99315641    -0.09490
C5338       C  0.93489206  0.17446423  0.00930189     0.06710
C5339       C  0.92838300  0.16906605  0.02812320    -0.03260
C5340       C  0.90959465  0.16128733  0.03066093    -0.07710
C5341       C  0.89700526  0.15908699  0.01466614     0.05820
C5342       C  0.90389437  0.16333845  0.99574273    -0.02730
Br5343     Br  0.88746442  0.16052589  0.97316741    -0.02430
H5344       H  0.92741841  0.17511473  0.97865827     0.09730
H5345       H  0.90447110  0.15784628  0.04523395     0.07750
Br5346     Br  0.94436024  0.17281720  0.05086727    -0.02850
C5347       C  0.91716055  0.23290292  0.07298596    -0.09490
C5348       C  0.92312525  0.25156564  0.06685556     0.06710
C5349       C  0.91355065  0.26817587  0.07429844    -0.03260
C5350       C  0.89743726  0.26578823  0.08670336    -0.07710
C5351       C  0.89094202  0.24704188  0.09194918     0.05820
C5352       C  0.90122679  0.23055574  0.08542327    -0.02730
Br5353     Br  0.89278678  0.20450979  0.09155180    -0.02430
H5354       H  0.92457855  0.22000394  0.06757213     0.09730
H5355       H  0.88916130  0.27850444  0.09120313     0.07750
Br5356     Br  0.92030836  0.29411016  0.06617052    -0.02850
C5357       C  0.06740751  0.33789205  0.01999977    -0.09490
C5358       C  0.06541201  0.32926073  0.00145262     0.06710
C5359       C  0.07728106  0.33592938  0.98595901    -0.03260
C5360       C  0.08968552  0.35200524  0.98895461    -0.07710
C5361       C  0.09058377  0.36125663  0.00725153     0.05820
C5362       C  0.07982606  0.35367763  0.02298258    -0.02730
Br5363     Br  0.08052034  0.36536042  0.04853020    -0.02430
H5364       H  0.05892720  0.33258290  0.03227713     0.09730
H5365       H  0.09768431  0.35805249  0.97670764     0.07750
Br5366     Br  0.07584888  0.32502500  0.96015931    -0.02850
C5367       C  0.02288299  0.32379246  0.08483241    -0.09490
C5368       C  0.00460442  0.31951986  0.07660566     0.06710
C5369       C  0.98941587  0.33332696  0.07830047    -0.03260
C5370       C  0.99296981  0.35141441  0.08725099    -0.07710
C5371       C  0.01156382  0.35610604  0.09460786     0.05820
C5372       C  0.02643514  0.34182321  0.09387373    -0.02730
Br5373     Br  0.05259355  0.34697402  0.10264693    -0.02430
H5374       H  0.03478681  0.31349722  0.08320342     0.09730
H5375       H  0.98147987  0.36228873  0.08748140     0.07750
Br5376     Br  0.96444217  0.32935739  0.06614778    -0.02850
loop_ 
_geom_bond_atom_site_label_1 
_geom_bond_atom_site_label_2 
_geom_bond_distance 
_geom_bond_site_symmetry_2 
_ccdc_geom_bond_type 
O1           Mg3   2.159       .  S
O1           Mg9   2.142       .  S
O1           C36   1.234       .  S
C2           O15   1.235       .  S
C2           O39   1.269       .  A
C2           H41   1.081       .  S
Mg3          O32   2.146       .  S
Mg3          O47   2.310       .  S
Mg3          O43   2.286       .  S
Mg3          O14   2.312   1_655  S
O4          Mg46   2.154       .  S
O4          Mg29   2.159   1_455  S
O4           C25   1.234       .  S
O5           C36   1.271       .  A
O5          Mg29   2.316   1_554  S
C6            O8   1.267   1_556  A
C6           O20   1.274       .  A
C6         C5358   1.475   1_556  S
O7           C35   1.271       .  A
O7           Mg9   2.301       .  S
O8          Mg40   2.213       .  S
Mg9          O15   2.141   1_554  S
Mg9          O23   2.224       .  S
Mg9          O11   2.282       .  S
C10          O48   1.274       .  A
C10          O16   1.270       .  A
C10        C5318   1.478       .  S
O11          C18   1.270       .  A
H12          C25   1.081       .  S
C13          O27   1.235       .  S
C13          O28   1.268       .  A
C13          H38   1.081       .  S
O14          C37   1.271       .  A
O15         Mg29   2.150       .  S
O16         Mg46   2.284       .  S
C17          O30   1.266       .  A
C17          O22   1.276   1_455  A
C17        C5328   1.482       .  S
C18          O45   1.274   1_554  A
C18        C5338   1.476       .  S
Mg19         O26   2.166   1_556  S
Mg19         O27   2.146       .  S
Mg19         O20   2.311       .  S
Mg19         O21   2.310       .  S
Mg19         O48   2.299       .  S
O21          C25   1.270       .  A
O22         Mg29   2.331       .  S
O23          C42   1.267       .  A
O24          C44   1.271       .  A
O24         Mg40   2.295       .  S
O26         Mg40   2.157       .  S
O26          C37   1.234       .  S
O27         Mg46   2.133       .  S
O28         Mg40   2.293   1_556  S
Mg29         O45   2.297       .  S
O30         Mg46   2.205       .  S
H31          C36   1.081       .  S
O32         Mg40   2.140   1_655  S
O32          C35   1.236       .  S
H33          C35   1.081       .  S
H34          C37   1.081       .  S
O39         Mg46   2.292   1_655  S
C42          O47   1.273       .  A
C42        C5348   1.471       .  S
O43          C44   1.272   1_655  A
C44        C5368   1.476       .  S
O49         Mg51   2.141       .  S
O49         Mg57   2.174       .  S
O49          C84   1.233       .  S
C50          O63   1.235   1_655  S
C50          O87   1.270       .  A
C50          H89   1.081   1_655  S
Mg51         O80   2.157       .  S
Mg51         O95   2.267       .  S
Mg51         O91   2.261   1_565  S
Mg51         O62   2.297   1_565  S
O52         Mg94   2.169       .  S
O52         Mg77   2.140   1_655  S
O52          C73   1.233   1_655  S
O53          C84   1.266       .  A
O53         Mg77   2.284       .  S
C54          O56   1.274       .  A
C54          O68   1.272       .  A
C54        C5258   1.478       .  S
O55          C83   1.270   1_455  A
O55         Mg57   2.308       .  S
O56         Mg88   2.300       .  S
Mg57         O63   2.163       .  S
Mg57         O71   2.309       .  S
Mg57         O59   2.343       .  S
C58          O96   1.271       .  A
C58          O64   1.275       .  A
C58        C5271   1.483       .  S
O59          C66   1.279       .  A
H60          C73   1.081       .  S
C61          O75   1.234       .  S
C61          O76   1.269       .  A
C61          H86   1.081       .  S
O62          C85   1.269       .  A
O63         Mg77   2.170       .  S
O64         Mg94   2.312       .  S
C65          O78   1.273       .  A
C65          O70   1.271   1_655  A
C65        C5291   1.477       .  S
C66          O93   1.268       .  A
C66        C5278   1.494       .  S
Mg67         O74   2.146       .  S
Mg67         O75   2.163   1_545  S
Mg67         O68   2.273       .  S
Mg67         O69   2.292   1_545  S
Mg67         O96   2.259   1_545  S
O69          C73   1.267   1_655  A
O70         Mg77   2.272       .  S
O71          C90   1.275       .  A
O72          C92   1.274   1_655  A
O72         Mg88   2.312       .  S
O74         Mg88   2.172       .  S
O74          C85   1.235   1_655  S
O75         Mg94   2.155       .  S
O76         Mg88   2.301   1_565  S
Mg77         O93   2.234       .  S
O78         Mg94   2.291       .  S
H79          C84   1.081       .  S
O80         Mg88   2.166   1_465  S
O80          C83   1.235   1_455  S
H81          C83   1.081       .  S
H82          C85   1.081       .  S
O87         Mg94   2.301       .  S
C90          O95   1.274       .  A
C90        C5298   1.498       .  S
O91          C92   1.272       .  A
C92        C5311   1.495       .  S
C97        C5248   1.505       .  S
C97          C98   1.412       .  A
C97         C102   1.421       .  A
C98        C5238   1.487       .  S
C98          C99   1.415       .  A
C99        C5228   1.479       .  S
C99         C100   1.416       .  A
C100       C5218   1.501       .  S
C100        C101   1.416       .  A
C101       C5198   1.491       .  S
C101        C102   1.426       .  A
C102       C5208   1.485       .  S
C103       C5178   1.480       .  S
C103        C104   1.404       .  A
C103        C108   1.411       .  A
C104        H109   1.084       .  S
C104        C105   1.396       .  A
C105       C5211   1.475       .  S
C105        C106   1.392       .  A
C106        H110   1.085       .  S
C106        C107   1.399       .  A
C107       C5191   1.476       .  S
C107        C108   1.408       .  A
C108        H111   1.083       .  S
C112       C5158   1.479       .  S
C112        C113   1.405       .  A
C112        C117   1.408       .  A
C113        H118   1.079       .  S
C113        C114   1.403       .  A
C114       C5231   1.498       .  S
C114        C115   1.404       .  A
C115        H119   1.082       .  S
C115        C116   1.396       .  A
C116       C5168   1.476       .  S
C116        C117   1.404       .  A
C117        H120   1.083       .  S
C121       C5138   1.481       .  S
C121        C122   1.407       .  A
C121        C126   1.404       .  A
C122        H127   1.083       .  S
C122        C123   1.403       .  A
C123       C5221   1.492       .  S
C123        C124   1.406       .  A
C124        H128   1.084       .  S
C124        C125   1.405       .  A
C125       C5148   1.479       .  S
C125        C126   1.403       .  A
C126        H129   1.084       .  S
C130       C5118   1.483       .  S
C130        C131   1.408       .  A
C130        C135   1.399       .  A
C131        H136   1.079       .  S
C131        C132   1.411       .  A
C132       C5251   1.515       .  S
C132        C133   1.411       .  A
C133        H137   1.077       .  S
C133        C134   1.406       .  A
C134       C5128   1.479       .  S
C134        C135   1.399       .  A
C135        H138   1.083       .  S
C139       C5101   1.476       .  S
C139        C140   1.409       .  A
C139        C144   1.410       .  A
C140        H145   1.083       .  S
C140        C141   1.400       .  A
C141       C5241   1.484       .  S
C141        C142   1.396       .  A
C142        H146   1.085       .  S
C142        C143   1.397       .  A
C143       C5108   1.481       .  S
C143        C144   1.407       .  A
C144        H147   1.083       .  S
C148       C5078   1.470       .  S
C148        C149   1.400       .  A
C148        C153   1.398       .  A
C149        H154   1.080       .  S
C149        C150   1.405       .  A
C150       C5201   1.507       .  S
C150        C151   1.413       .  A
C151        H155   1.081       .  S
C151        C152   1.408       .  A
C152       C5088   1.477       .  S
C152        C153   1.400       .  A
C153        H156   1.084       .  S
O157       Mg159   2.108       .  S
O157       Mg165   2.152   1_455  S
O157        C192   1.234       .  S
C158        O171   1.235   1_655  S
C158        O195   1.270   1_655  A
C158        H197   1.081       .  S
Mg159       O188   2.154       .  S
Mg159       O203   2.278   1_455  S
Mg159       O199   2.182       .  S
Mg159       O170   2.296       .  S
O160       Mg202   2.154       .  S
O160       Mg185   2.158       .  S
O160        C181   1.236       .  S
O161        C192   1.266       .  A
O161       Mg185   2.281       .  S
C162        O164   1.273       .  A
C162        O176   1.276       .  A
C162       C5071   1.480       .  S
O163        C191   1.271   1_655  A
O163       Mg165   2.307       .  S
O164       Mg196   2.278       .  S
Mg165       O171   2.154   1_655  S
Mg165       O179   2.310       .  S
Mg165       O167   2.324       .  S
C166        O204   1.270       .  A
C166        O172   1.275       .  A
C166       C5061   1.472       .  S
O167        C174   1.277       .  A
H168        C181   1.081       .  S
C169        O183   1.234       .  S
C169        O184   1.271       .  A
C169        H194   1.081       .  S
O170        C193   1.270       .  A
O171       Mg185   2.157       .  S
O172       Mg202   2.325       .  S
C173        O186   1.275       .  A
C173        O178   1.272       .  A
C173       C5031   1.487       .  S
C174        O201   1.272       .  A
C174       C5018   1.483       .  S
Mg175       O182   2.154       .  S
Mg175       O183   2.150       .  S
Mg175       O176   2.315       .  S
Mg175       O177   2.306       .  S
Mg175       O204   2.247       .  S
O177        C181   1.271       .  A
O178       Mg185   2.281       .  S
O179        C198   1.275       .  A
O180        C200   1.276       .  A
O180       Mg196   2.345       .  S
O182       Mg196   2.161       .  S
O182        C193   1.236       .  S
O183       Mg202   2.178       .  S
O184       Mg196   2.319       .  S
Mg185       O201   2.244   1_455  S
O186       Mg202   2.301       .  S
H187        C192   1.081       .  S
O188       Mg196   2.166       .  S
O188        C191   1.235       .  S
H189        C191   1.081   1_655  S
H190        C193   1.081       .  S
O195       Mg202   2.302       .  S
C198        O203   1.272       .  A
C198       C5038   1.494       .  S
O199        C200   1.258       .  A
C200       C5051   1.490       .  S
C205       C4998   1.503       .  S
C205        C206   1.406       .  A
C205        C210   1.408       .  A
C206       C5011   1.478   1_455  S
C206        C207   1.421   1_465  A
C207       C4981   1.495       .  S
C207        C208   1.423   1_655  A
C208       C4958   1.505       .  S
C208        C209   1.427   1_545  A
C209       C4971   1.497       .  S
C209        C210   1.426       .  A
C210       C4988   1.482       .  S
C211       C4948   1.491       .  S
C211        C212   1.409       .  A
C211        C216   1.411       .  A
C212        H217   1.082       .  S
C212        C213   1.408       .  A
C213       C5301   1.477       .  S
C213        C214   1.399       .  A
C214        H218   1.082       .  S
C214        C215   1.404       .  A
C215       C4968   1.502       .  S
C215        C216   1.403       .  A
C216        H219   1.080   1_565  S
C220       C5028   1.480       .  S
C220        C221   1.405       .  A
C220        C225   1.407       .  A
C221        H226   1.083       .  S
C221        C222   1.404       .  A
C222       C5308   1.477       .  S
C222        C223   1.404       .  A
C223        H227   1.084       .  S
C223        C224   1.402       .  A
C224       C4961   1.484       .  S
C224        C225   1.404       .  A
C225        H228   1.084       .  S
C229       C4938   1.476       .  S
C229        C230   1.401       .  A
C229        C234   1.408       .  A
C230        H235   1.083       .  S
C230        C231   1.400       .  A
C231       C4991   1.483       .  S
C231        C232   1.399       .  A
C232        H236   1.084       .  S
C232        C233   1.399       .  A
C233       C4928   1.478       .  S
C233        C234   1.408       .  A
C234        H237   1.083       .  S
C238       C5021   1.473       .  S
C238        C239   1.397       .  A
C238        C243   1.404       .  A
C239        H244   1.082       .  S
C239        C240   1.404       .  A
C240       C4978   1.499       .  S
C240        C241   1.408       .  A
C241        H245   1.079       .  S
C241        C242   1.405       .  A
C242       C4921   1.481       .  S
C242        C243   1.405       .  A
C243        H246   1.083       .  S
C247       C4898   1.469       .  S
C247        C248   1.399       .  A
C247        C252   1.408       .  A
C248        H253   1.084       .  S
C248        C249   1.392       .  A
C249       C5008   1.476       .  S
C249        C250   1.396       .  A
C250        H254   1.084       .  S
C250        C251   1.400       .  A
C251       C4911   1.482       .  S
C251        C252   1.410       .  A
C252        H255   1.083       .  S
C256       C4878   1.478       .  S
C256        C257   1.408       .  A
C256        C261   1.400       .  A
C257        H262   1.082       .  S
C257        C258   1.414       .  A
C258       C5001   1.508       .  S
C258        C259   1.410       .  A
C259        H263   1.081       .  S
C259        C260   1.404       .  A
C260       C4888   1.477       .  S
C260        C261   1.398       .  A
C261        H264   1.084       .  S
O265       Mg267   2.167   1_565  S
O265       Mg273   2.164       .  S
O265        C300   1.235   1_565  S
C266        O279   1.233       .  S
C266        O303   1.268       .  A
C266        H305   1.081       .  S
Mg267       O296   2.191       .  S
Mg267       O311   2.354       .  S
Mg267       O307   2.318       .  S
Mg267       O278   2.297       .  S
O268       Mg310   2.163       .  S
O268       Mg293   2.159       .  S
O268        C289   1.234       .  S
O269        C300   1.270   1_565  A
O269       Mg293   2.310       .  S
C270        O272   1.270       .  A
C270        O284   1.275       .  A
C270       C4848   1.483       .  S
O271        C299   1.265       .  A
O271       Mg273   2.281       .  S
O272       Mg304   2.254       .  S
Mg273       O279   2.141       .  S
Mg273       O287   2.225       .  S
Mg273       O275   2.266       .  S
C274        O312   1.273       .  A
C274        O280   1.273   1_545  A
C274       C4868   1.483       .  S
O275        C282   1.269       .  A
H276        C289   1.081       .  S
C277        O291   1.233       .  S
C277        O292   1.266   1_565  A
C277        H302   1.081       .  S
O278        C301   1.268       .  A
O279       Mg293   2.168       .  S
O280       Mg310   2.277       .  S
C281        O294   1.268       .  A
C281        O286   1.274       .  A
C281       C4861   1.490       .  S
C282        O309   1.273       .  A
C282       C4941   1.481       .  S
Mg283       O290   2.147       .  S
Mg283       O291   2.161   1_545  S
Mg283       O284   2.304       .  S
Mg283       O285   2.303       .  S
Mg283       O312   2.283       .  S
O285        C289   1.269   1_545  A
O286       Mg293   2.319       .  S
O287        C306   1.268       .  A
O288        C308   1.264       .  A
O288       Mg304   2.218       .  S
O290       Mg304   2.167       .  S
O290        C301   1.234       .  S
O291       Mg310   2.119       .  S
O292       Mg304   2.279       .  S
Mg293       O309   2.293       .  S
O294       Mg310   2.212       .  S
H295        C300   1.081       .  S
O296       Mg304   2.139       .  S
O296        C299   1.232   1_545  S
H297        C299   1.081       .  S
H298        C301   1.081       .  S
O303       Mg310   2.293       .  S
C306        O311   1.279   1_565  A
C306       C4951   1.488       .  S
O307        C308   1.278       .  A
C308       C4841   1.484       .  S
C313       C4818   1.499   1_455  S
C313        C314   1.420       .  A
C313        C318   1.431       .  A
C314       C4828   1.492   1_554  S
C314        C315   1.410       .  A
C315       C4801   1.492   1_554  S
C315        C316   1.412       .  A
C316       C4791   1.491       .  S
C316        C317   1.422       .  A
C317       C4778   1.503       .  S
C317        C318   1.429       .  A
C318       C4811   1.501   1_455  S
C319       C4768   1.475       .  S
C319        C320   1.405       .  A
C319        C324   1.407       .  A
C320        H325   1.083       .  S
C320        C321   1.402       .  A
C321       C5361   1.467       .  S
C321        C322   1.396       .  A
C322        H326   1.085       .  S
C322        C323   1.394       .  A
C323       C4788   1.479       .  S
C323        C324   1.401       .  A
C324        H327   1.084       .  S
C328       C4758   1.480       .  S
C328        C329   1.398       .  A
C328        C333   1.403       .  A
C329        H334   1.081       .  S
C329        C330   1.409       .  A
C330       C4781   1.505       .  S
C330        C331   1.409       .  A
C331        H335   1.079       .  S
C331        C332   1.408       .  A
C332       C5371   1.486       .  S
C332        C333   1.405       .  A
C333        H336   1.083       .  S
C337       C4748   1.480       .  S
C337        C338   1.404       .  A
C337        C342   1.406       .  A
C338        H343   1.084       .  S
C338        C339   1.399       .  A
C339       C4808   1.481       .  S
C339        C340   1.401       .  A
C340        H344   1.084       .  S
C340        C341   1.407       .  A
C341       C4741   1.480       .  S
C341        C342   1.407       .  A
C342        H345   1.083       .  S
C346       C4728   1.472       .  S
C346        C347   1.397       .  A
C346        C351   1.402       .  A
C347        H352   1.083       .  S
C347        C348   1.404       .  A
C348       C4798   1.499       .  S
C348        C349   1.408       .  A
C349        H353   1.080       .  S
C349        C350   1.410       .  A
C350       C4718   1.483       .  S
C350        C351   1.405       .  A
C351        H354   1.083       .  S
C355       C4698   1.476       .  S
C355        C356   1.399       .  A
C355        C360   1.406       .  A
C356        H361   1.084       .  S
C356        C357   1.400       .  A
C357       C4831   1.479       .  S
C357        C358   1.397       .  A
C358        H362   1.084       .  S
C358        C359   1.402       .  A
C359       C4708   1.474       .  S
C359        C360   1.408       .  A
C360        H363   1.083       .  S
C364       C4678   1.479       .  S
C364        C365   1.408       .  A
C364        C369   1.407       .  A
C365        H370   1.082       .  S
C365        C366   1.410       .  A
C366       C4821   1.500       .  S
C366        C367   1.399       .  A
C367        H371   1.081   1_554  S
C367        C368   1.401       .  A
C368       C4688   1.482   1_554  S
C368        C369   1.405       .  A
C369        H372   1.083       .  S
O373       Mg375   2.143       .  S
O373       Mg381   2.186       .  S
O373        C408   1.234       .  S
C374        O387   1.235       .  S
C374        O411   1.271       .  A
C374        H413   1.081       .  S
Mg375       O404   2.165   1_655  S
Mg375       O419   2.225       .  S
Mg375       O415   2.260   1_655  S
Mg375       O386   2.286   1_655  S
O376       Mg418   2.161       .  S
O376       Mg401   2.135       .  S
O376        C397   1.233       .  S
O377        C408   1.268       .  A
O377       Mg401   2.291   1_655  S
C378        O380   1.275       .  A
C378        O392   1.270       .  A
C378       C4661   1.475       .  S
O379        C407   1.270       .  A
O379       Mg381   2.305   1_455  S
O380       Mg412   2.300       .  S
Mg381       O387   2.167   1_655  S
Mg381       O395   2.330       .  S
Mg381       O383   2.341       .  S
C382        O420   1.265       .  A
C382        O388   1.279       .  A
C382       C4668   1.493       .  S
O383        C390   1.279       .  A
H384        C397   1.081       .  S
C385        O399   1.234       .  S
C385        O400   1.268       .  A
C385        H410   1.081       .  S
O386        C409   1.266       .  A
O387       Mg401   2.159       .  S
O388       Mg418   2.333       .  S
C389        O402   1.275       .  A
C389        O394   1.273       .  A
C389       C4761   1.482       .  S
C390        O417   1.270       .  A
C390       C4751   1.495       .  S
Mg391       O398   2.129       .  S
Mg391       O399   2.168       .  S
Mg391       O392   2.259       .  S
Mg391       O393   2.284       .  S
Mg391       O420   2.222       .  S
O393        C397   1.266       .  A
O394       Mg401   2.286       .  S
O395        C414   1.276       .  A
O396        C416   1.276       .  A
O396       Mg412   2.318       .  S
O398       Mg412   2.171       .  S
O398        C409   1.233       .  S
O399       Mg418   2.157       .  S
O400       Mg412   2.298       .  S
Mg401       O417   2.235   1_455  S
O402       Mg418   2.294       .  S
H403        C408   1.081       .  S
O404       Mg412   2.157       .  S
O404        C407   1.235       .  S
H405        C407   1.081       .  S
H406        C409   1.081       .  S
O411       Mg418   2.308       .  S
C414        O419   1.268       .  A
C414       C4648   1.495       .  S
O415        C416   1.271       .  A
C416       C4638   1.485       .  S
O421       Mg423   2.130       .  S
O421       Mg429   2.147       .  S
O421        C456   1.233       .  S
C422        O435   1.235       .  S
C422        O459   1.271       .  A
C422        H461   1.081       .  S
Mg423       O452   2.152       .  S
Mg423       O467   2.264       .  S
Mg423       O463   2.219       .  S
Mg423       O434   2.285       .  S
O424       Mg466   2.168       .  S
O424       Mg449   2.146       .  S
O424        C445   1.233       .  S
O425        C456   1.267       .  A
O425       Mg449   2.289   1_554  S
C426        O428   1.273       .  A
C426        O440   1.271       .  A
C426       C4611   1.475       .  S
O427        C455   1.270       .  A
O427       Mg429   2.308       .  S
O428       Mg460   2.281       .  S
Mg429       O435   2.169       .  S
Mg429       O443   2.307       .  S
Mg429       O431   2.303       .  S
C430        O468   1.269       .  A
C430        O436   1.279       .  A
C430       C4601   1.499       .  S
O431        C438   1.275       .  A
H432        C445   1.081       .  S
C433        O447   1.234       .  S
C433        O448   1.269       .  A
C433        H458   1.081       .  S
O434        C457   1.268       .  A
O435       Mg449   2.170   1_554  S
O436       Mg466   2.344       .  S
C437        O450   1.275       .  A
C437        O442   1.272       .  A
C437       C4731   1.480       .  S
C438        O465   1.270       .  A
C438       C4771   1.477       .  S
Mg439       O446   2.132       .  S
Mg439       O447   2.165       .  S
Mg439       O440   2.263       .  S
Mg439       O441   2.289   1_554  S
Mg439       O468   2.230   1_554  S
O441        C445   1.267       .  A
O442       Mg449   2.265       .  S
O443        C462   1.274       .  A
O444        C464   1.274       .  A
O444       Mg460   2.320       .  S
O446       Mg460   2.173       .  S
O446        C457   1.235       .  S
O447       Mg466   2.156   1_554  S
O448       Mg460   2.301       .  S
Mg449       O465   2.250   1_556  S
O450       Mg466   2.299       .  S
H451        C456   1.081       .  S
O452       Mg460   2.145       .  S
O452        C455   1.235       .  S
H453        C455   1.081       .  S
H454        C457   1.081       .  S
O459       Mg466   2.311   1_554  S
C462        O467   1.268       .  A
C462       C4628   1.479       .  S
O463        C464   1.267       .  A
C464       C4618   1.492       .  S
C469       C4578   1.502       .  S
C469        C470   1.413       .  A
C469        C474   1.415       .  A
C470       C4591   1.479   1_554  S
C470        C471   1.415   1_565  A
C471       C4571   1.488   1_554  S
C471        C472   1.413       .  A
C472       C4551   1.493       .  S
C472        C473   1.422   1_545  A
C473       C4538   1.496       .  S
C473        C474   1.424       .  A
C474       C4561   1.487       .  S
C475       C4531   1.472       .  S
C475        C476   1.403       .  A
C475        C480   1.401       .  A
C476        H481   1.084       .  S
C476        C477   1.403       .  A
C477       C4548   1.489       .  S
C477        C478   1.406       .  A
C478        H482   1.083       .  S
C478        C479   1.406       .  A
C479       C4518   1.477       .  S
C479        C480   1.402       .  A
C480        H483   1.084       .  S
C484       C4508   1.491       .  S
C484        C485   1.407       .  A
C484        C489   1.408       .  A
C485        H490   1.081   1_565  S
C485        C486   1.406       .  A
C486       C4541   1.502       .  S
C486        C487   1.404       .  A
C487        H491   1.079       .  S
C487        C488   1.401       .  A
C488       C4498   1.482       .  S
C488        C489   1.410       .  A
C489        H492   1.083       .  S
C493       C4488   1.472       .  S
C493        C494   1.395       .  A
C493        C498   1.400       .  A
C494        H499   1.082       .  S
C494        C495   1.400       .  A
C495       C4568   1.499       .  S
C495        C496   1.411       .  A
C496        H500   1.083       .  S
C496        C497   1.412       .  A
C497       C4481   1.477       .  S
C497        C498   1.404       .  A
C498        H501   1.083       .  S
C502       C4468   1.478       .  S
C502        C503   1.408       .  A
C502        C507   1.399       .  A
C503        H508   1.083       .  S
C503        C504   1.412       .  A
C504       C4458   1.481       .  S
C504        C505   1.402       .  A
C505        H509   1.084       .  S
C505        C506   1.398       .  A
C506       C4558   1.481       .  S
C506        C507   1.399       .  A
C507        H510   1.084       .  S
C511       C4448   1.471       .  S
C511        C512   1.399       .  A
C511        C516   1.407       .  A
C512        H517   1.085       .  S
C512        C513   1.397       .  A
C513       C4588   1.479       .  S
C513        C514   1.395       .  A
C514        H518   1.083       .  S
C514        C515   1.400       .  A
C515       C4438   1.474       .  S
C515        C516   1.407       .  A
C516        H519   1.083       .  S
C520       C4431   1.486       .  S
C520        C521   1.409       .  A
C520        C525   1.405       .  A
C521        H526   1.083       .  S
C521        C522   1.410       .  A
C522       C4581   1.503       .  S
C522        C523   1.406       .  A
C523        H527   1.082       .  S
C523        C524   1.406       .  A
C524       C4418   1.482       .  S
C524        C525   1.404       .  A
C525        H528   1.083       .  S
O529       Mg531   2.144   1_545  S
O529       Mg537   2.168       .  S
O529        C564   1.235   1_545  S
C530        O543   1.233       .  S
C530        O567   1.268       .  A
C530        H569   1.081       .  S
Mg531       O560   2.172       .  S
Mg531       O575   2.295       .  S
Mg531       O571   2.261       .  S
Mg531       O542   2.300       .  S
O532       Mg574   2.177       .  S
O532       Mg557   2.143       .  S
O532        C553   1.234   1_545  S
O533        C564   1.268   1_545  A
O533       Mg557   2.289       .  S
C534        O536   1.273       .  A
C534        O548   1.268       .  A
C534       C4471   1.483       .  S
O535        C563   1.271       .  A
O535       Mg537   2.305       .  S
O536       Mg568   2.310       .  S
Mg537       O543   2.155       .  S
Mg537       O551   2.286       .  S
Mg537       O539   2.324       .  S
C538        O576   1.268       .  A
C538        O544   1.278   1_565  A
C538       C4511   1.487       .  S
O539        C546   1.277       .  A
H540        C553   1.081       .  S
C541        O555   1.236       .  S
C541        O556   1.273   1_545  A
C541        H566   1.081       .  S
O542        C565   1.269       .  A
O543       Mg557   2.161       .  S
O544       Mg574   2.347       .  S
C545        O558   1.277       .  A
C545        O550   1.272       .  A
C545       C4378   1.478       .  S
C546        O573   1.270       .  A
C546       C4391   1.489       .  S
Mg547       O554   2.152       .  S
Mg547       O555   2.156   1_565  S
Mg547       O548   2.270       .  S
Mg547       O549   2.288       .  S
Mg547       O576   2.232       .  S
O549        C553   1.268       .  A
O550       Mg557   2.268       .  S
O551        C570   1.274       .  A
O552        C572   1.277       .  A
O552       Mg568   2.322       .  S
O554       Mg568   2.154       .  S
O554        C565   1.233       .  S
O555       Mg574   2.170       .  S
O556       Mg568   2.322       .  S
Mg557       O573   2.250       .  S
O558       Mg574   2.304       .  S
H559        C564   1.081       .  S
O560       Mg568   2.166       .  S
O560        C563   1.235   1_565  S
H561        C563   1.081       .  S
H562        C565   1.081       .  S
O567       Mg574   2.298       .  S
C570        O575   1.275   1_545  A
C570       C4401   1.482       .  S
O571        C572   1.272       .  A
C572       C4411   1.486       .  S
O577       Mg579   2.145       .  S
O577       Mg585   2.164       .  S
O577        C612   1.233       .  S
C578        O591   1.236       .  S
C578        O615   1.269       .  A
C578        H617   1.081       .  S
Mg579       O608   2.161       .  S
Mg579       O623   2.296       .  S
Mg579       O619   2.278       .  S
Mg579       O590   2.303       .  S
O580       Mg622   2.148       .  S
O580       Mg605   2.165       .  S
O580        C601   1.235   1_554  S
O581        C612   1.267       .  A
O581       Mg605   2.294       .  S
C582        O584   1.266       .  A
C582        O596   1.273       .  A
C582       C4491   1.463       .  S
O583        C611   1.268       .  A
O583       Mg585   2.286       .  S
O584       Mg616   2.227   1_556  S
Mg585       O591   2.138       .  S
Mg585       O599   2.238       .  S
Mg585       O587   2.270       .  S
C586        O624   1.271       .  A
C586        O592   1.270       .  A
C586       C4361   1.475       .  S
O587        C594   1.272       .  A
H588        C601   1.081       .  S
C589        O603   1.235       .  S
C589        O604   1.270       .  A
C589        H614   1.081       .  S
O590        C613   1.269   1_554  A
O591       Mg605   2.167       .  S
O592       Mg622   2.300   1_556  S
C593        O606   1.266       .  A
C593        O598   1.276       .  A
C593       C4371   1.470       .  S
C594        O621   1.275       .  A
C594       C4338   1.489       .  S
Mg595       O602   2.153       .  S
Mg595       O603   2.141   1_556  S
Mg595       O596   2.312       .  S
Mg595       O597   2.317       .  S
Mg595       O624   2.278       .  S
O597        C601   1.272       .  A
O598       Mg605   2.323       .  S
O599        C618   1.269       .  A
O600        C620   1.271       .  A
O600       Mg616   2.275       .  S
O602       Mg616   2.152   1_556  S
O602        C613   1.234       .  S
O603       Mg622   2.143       .  S
O604       Mg616   2.302       .  S
Mg605       O621   2.300       .  S
O606       Mg622   2.210       .  S
H607        C612   1.081       .  S
O608       Mg616   2.132       .  S
O608        C611   1.235       .  S
H609        C611   1.081       .  S
H610        C613   1.081       .  S
O615       Mg622   2.295       .  S
C618        O623   1.272       .  A
C618       C4348   1.464       .  S
O619        C620   1.273       .  A
C620       C4528   1.477       .  S
O625       Mg627   2.150       .  S
O625       Mg633   2.160       .  S
O625        C660   1.234       .  S
C626        O639   1.233       .  S
C626        O663   1.266       .  A
C626        H665   1.081       .  S
Mg627       O656   2.170       .  S
Mg627       O671   2.337       .  S
Mg627       O667   2.292       .  S
Mg627       O638   2.317       .  S
O628       Mg670   2.166       .  S
O628       Mg653   2.154       .  S
O628        C649   1.233       .  S
O629        C660   1.269       .  A
O629       Mg653   2.300       .  S
C630        O632   1.269       .  A
C630        O644   1.277       .  A
C630       C4298   1.486       .  S
O631        C659   1.267       .  A
O631       Mg633   2.292       .  S
O632       Mg664   2.233       .  S
Mg633       O639   2.121       .  S
Mg633       O647   2.214       .  S
Mg633       O635   2.276       .  S
C634        O672   1.278       .  A
C634        O640   1.266       .  A
C634       C5111   1.491       .  S
O635        C642   1.271       .  A
H636        C649   1.081       .  S
C637        O651   1.233       .  S
C637        O652   1.267       .  A
C637        H662   1.081       .  S
O638        C661   1.272       .  A
O639       Mg653   2.156       .  S
O640       Mg670   2.241       .  S
C641        O654   1.270       .  A
C641        O646   1.271       .  A
C641       C5131   1.476       .  S
C642        O669   1.272       .  A
C642       C4328   1.478       .  S
Mg643       O650   2.176       .  S
Mg643       O651   2.183       .  S
Mg643       O644   2.342       .  S
Mg643       O645   2.299       .  S
Mg643       O672   2.316       .  S
O645        C649   1.268       .  A
O646       Mg653   2.290       .  S
O647        C666   1.268       .  A
O648        C668   1.271       .  A
O648       Mg664   2.261       .  S
O650       Mg664   2.162       .  S
O650        C661   1.235       .  S
O651       Mg670   2.139       .  S
O652       Mg664   2.287       .  S
Mg653       O669   2.275       .  S
O654       Mg670   2.249       .  S
H655        C660   1.081       .  S
O656       Mg664   2.146       .  S
O656        C659   1.233       .  S
H657        C659   1.081       .  S
H658        C661   1.081       .  S
O663       Mg670   2.282       .  S
C666        O671   1.277       .  A
C666       C4318   1.494       .  S
O667        C668   1.272       .  A
C668       C4311   1.487       .  S
C673       C4281   1.503       .  S
C673        C674   1.418       .  A
C673        C678   1.414       .  A
C674       C4288   1.480       .  S
C674        C675   1.424       .  A
C675       C4248   1.498       .  S
C675        C676   1.419       .  A
C676       C4268   1.498       .  S
C676        C677   1.416       .  A
C677       C4258   1.489       .  S
C677        C678   1.417       .  A
C678       C4241   1.482       .  S
C679       C4631   1.474       .  S
C679        C680   1.398       .  A
C679        C684   1.403       .  A
C680        H685   1.077       .  S
C680        C681   1.402       .  A
C681       C4238   1.504       .  S
C681        C682   1.410       .  A
C682        H686   1.080       .  S
C682        C683   1.402       .  A
C683       C4228   1.478       .  S
C683        C684   1.406       .  A
C684        H687   1.083       .  S
C688       C4621   1.472       .  S
C688        C689   1.403       .  A
C688        C693   1.406       .  A
C689        H694   1.083       .  S
C689        C690   1.401       .  A
C690       C4308   1.470       .  S
C690        C691   1.398       .  A
C691        H695   1.085       .  S
C691        C692   1.402       .  A
C692       C4261   1.485       .  S
C692        C693   1.403       .  A
C693        H696   1.083       .  S
C697       C4671   1.478       .  S
C697        C698   1.406       .  A
C697        C702   1.403       .  A
C698        H703   1.084       .  S
C698        C699   1.401       .  A
C699       C4278   1.482       .  S
C699        C700   1.401       .  A
C700        H704   1.084       .  S
C700        C701   1.406       .  A
C701       C4218   1.477       .  S
C701        C702   1.404       .  A
C702        H705   1.084       .  S
C706       C4658   1.482       .  S
C706        C707   1.408       .  A
C706        C711   1.400       .  A
C707        H712   1.083       .  S
C707        C708   1.408       .  A
C708       C4208   1.476       .  S
C708        C709   1.398       .  A
C709        H713   1.080       .  S
C709        C710   1.398       .  A
C710       C4291   1.494       .  S
C710        C711   1.405       .  A
C711        H714   1.081       .  S
C715       C4301   1.497       .  S
C715        C716   1.414       .  A
C715        C720   1.405       .  A
C716        H721   1.075       .  S
C716        C717   1.409       .  A
C717       C4271   1.523       .  S
C717        C718   1.412       .  A
C718        H722   1.077       .  S
C718        C719   1.402       .  A
C719       C4198   1.476       .  S
C719        C720   1.402       .  A
C720        H723   1.082       .  S
C724       C4188   1.477       .  S
C724        C725   1.410       .  A
C724        C729   1.410       .  A
C725        H730   1.083       .  S
C725        C726   1.401       .  A
C726       C4251   1.484       .  S
C726        C727   1.398       .  A
C727        H731   1.085       .  S
C727        C728   1.398       .  A
C728       C4178   1.486       .  S
C728        C729   1.407       .  A
C729        H732   1.083       .  S
O733       Mg735   2.143       .  S
O733       Mg741   2.164       .  S
O733        C768   1.233       .  S
C734        O747   1.234       .  S
C734        O771   1.269       .  A
C734        H773   1.081       .  S
Mg735       O764   2.166       .  S
Mg735       O779   2.270       .  S
Mg735       O775   2.247       .  S
Mg735       O746   2.292       .  S
O736       Mg778   2.174       .  S
O736       Mg761   2.144       .  S
O736        C757   1.234       .  S
O737        C768   1.267       .  A
O737       Mg761   2.291       .  S
C738        O740   1.274       .  A
C738        O752   1.273       .  A
C738       C4168   1.496       .  S
O739        C767   1.271       .  A
O739       Mg741   2.308       .  S
O740       Mg772   2.302       .  S
Mg741       O747   2.158       .  S
Mg741       O755   2.293       .  S
Mg741       O743   2.325       .  S
C742        O780   1.270       .  A
C742        O748   1.275       .  A
C742       C4158   1.481       .  S
O743        C750   1.276       .  A
H744        C757   1.081       .  S
C745        O759   1.235       .  S
C745        O760   1.270       .  A
C745        H770   1.081       .  S
O746        C769   1.268       .  A
O747       Mg761   2.164       .  S
O748       Mg778   2.310       .  S
C749        O762   1.273       .  A
C749        O754   1.271       .  A
C749       C4211   1.478       .  S
C750        O777   1.270       .  A
C750       C4191   1.493       .  S
Mg751       O758   2.144       .  S
Mg751       O759   2.160       .  S
Mg751       O752   2.272       .  S
Mg751       O753   2.291       .  S
Mg751       O780   2.253       .  S
O753        C757   1.268       .  A
O754       Mg761   2.266       .  S
O755        C774   1.274       .  A
O756        C776   1.277       .  A
O756       Mg772   2.321       .  S
O758       Mg772   2.159       .  S
O758        C769   1.234       .  S
O759       Mg778   2.155       .  S
O760       Mg772   2.308       .  S
Mg761       O777   2.241       .  S
O762       Mg778   2.283       .  S
H763        C768   1.081       .  S
O764       Mg772   2.165       .  S
O764        C767   1.235       .  S
H765        C767   1.081       .  S
H766        C769   1.081       .  S
O771       Mg778   2.300       .  S
C774        O779   1.271       .  A
C774       C5171   1.476       .  S
O775        C776   1.269       .  A
C776       C5151   1.484       .  S
C781       C4118   1.495       .  S
C781        C782   1.415       .  A
C781        C786   1.415       .  A
C782       C4151   1.482       .  S
C782        C783   1.412       .  A
C783       C4098   1.484       .  S
C783        C784   1.413       .  A
C784       C4108   1.496       .  S
C784        C785   1.418       .  A
C785       C4138   1.482       .  S
C785        C786   1.420       .  A
C786       C4128   1.489       .  S
C787       C4351   1.480       .  S
C787        C788   1.400       .  A
C787        C792   1.404       .  A
C788        H793   1.083       .  S
C788        C789   1.401       .  A
C789       C4101   1.497       .  S
C789        C790   1.405       .  A
C790        H794   1.080       .  S
C790        C791   1.407       .  A
C791       C4091   1.477       .  S
C791        C792   1.404       .  A
C792        H795   1.083       .  S
C796       C4388   1.478       .  S
C796        C797   1.408       .  A
C796        C801   1.409       .  A
C797        H802   1.084       .  S
C797        C798   1.402       .  A
C798       C4121   1.486       .  S
C798        C799   1.396       .  A
C799        H803   1.083       .  S
C799        C800   1.400       .  A
C800       C4081   1.486       .  S
C800        C801   1.408       .  A
C801        H804   1.083       .  S
C805       C4381   1.483       .  S
C805        C806   1.400       .  A
C805        C810   1.408       .  A
C806        H811   1.083       .  S
C806        C807   1.405       .  A
C807       C4148   1.492       .  S
C807        C808   1.398       .  A
C808        H812   1.081       .  S
C808        C809   1.400       .  A
C809       C4068   1.479       .  S
C809        C810   1.408       .  A
C810        H813   1.083       .  S
C814       C4331   1.472       .  S
C814        C815   1.395       .  A
C814        C819   1.405       .  A
C815        H820   1.084       .  S
C815        C816   1.399       .  A
C816       C4141   1.487       .  S
C816        C817   1.402       .  A
C817        H821   1.083       .  S
C817        C818   1.407       .  A
C818       C4058   1.480       .  S
C818        C819   1.408       .  A
C819        H822   1.083       .  S
C823       C4038   1.473       .  S
C823        C824   1.396       .  A
C823        C828   1.402       .  A
C824        H829   1.081       .  S
C824        C825   1.401       .  A
C825       C4131   1.503       .  S
C825        C826   1.412       .  A
C826        H830   1.082       .  S
C826        C827   1.410       .  A
C827       C4051   1.482       .  S
C827        C828   1.406       .  A
C828        H831   1.083       .  S
C832       C4321   1.476       .  S
C832        C833   1.401       .  A
C832        C837   1.405       .  A
C833        H838   1.084       .  S
C833        C834   1.403       .  A
C834       C4341   1.480       .  S
C834        C835   1.407       .  A
C835        H839   1.083       .  S
C835        C836   1.406       .  A
C836       C4111   1.491       .  S
C836        C837   1.403       .  A
C837        H840   1.084       .  S
O841       Mg843   2.154       .  S
O841       Mg849   2.171       .  S
O841        C876   1.235       .  S
C842        O855   1.233       .  S
C842        O879   1.265       .  A
C842        H881   1.081       .  S
Mg843       O872   2.158       .  S
Mg843       O887   2.323       .  S
Mg843       O883   2.295       .  S
Mg843       O854   2.311       .  S
O844       Mg886   2.166       .  S
O844       Mg869   2.145       .  S
O844        C865   1.234       .  S
O845        C876   1.269       .  A
O845       Mg869   2.302       .  S
C846        O848   1.269       .  A
C846        O860   1.278       .  A
C846       C4018   1.495       .  S
O847        C875   1.267       .  A
O847       Mg849   2.287       .  S
O848       Mg880   2.226       .  S
Mg849       O855   2.125       .  S
Mg849       O863   2.228       .  S
Mg849       O851   2.233       .  S
C850        O888   1.277       .  A
C850        O856   1.266       .  A
C850       C4078   1.485       .  S
O851        C858   1.266       .  A
H852        C865   1.081       .  S
C853        O867   1.235       .  S
C853        O868   1.268       .  A
C853        H878   1.081       .  S
O854        C877   1.271       .  A
O855       Mg869   2.177       .  S
O856       Mg886   2.231       .  S
C857        O870   1.270       .  A
C857        O862   1.279       .  A
C857       C4048   1.485       .  S
C858        O885   1.275       .  A
C858       C5188   1.480       .  S
Mg859       O866   2.167       .  S
Mg859       O867   2.186       .  S
Mg859       O860   2.335       .  S
Mg859       O861   2.296       .  S
Mg859       O888   2.322       .  S
O861        C865   1.268       .  A
O862       Mg869   2.328       .  S
O863        C882   1.267       .  A
O864        C884   1.273       .  A
O864       Mg880   2.286       .  S
O866       Mg880   2.156       .  S
O866        C877   1.235       .  S
O867       Mg886   2.143       .  S
O868       Mg880   2.290       .  S
Mg869       O885   2.306       .  S
O870       Mg886   2.251       .  S
H871        C876   1.081       .  S
O872       Mg880   2.135       .  S
O872        C875   1.234       .  S
H873        C875   1.081       .  S
H874        C877   1.081       .  S
O879       Mg886   2.280       .  S
C882        O887   1.277       .  A
C882       C5091   1.480       .  S
O883        C884   1.274       .  A
C884       C4028   1.479       .  S
C889       C3958   1.513       .  S
C889        C890   1.426       .  A
C889        C894   1.426       .  A
C890       C4008   1.497       .  S
C890        C891   1.429       .  A
C891       C3988   1.494       .  S
C891        C892   1.419       .  A
C892       C3998   1.507       .  S
C892        C893   1.414       .  A
C893       C3978   1.488       .  S
C893        C894   1.421       .  A
C894       C3971   1.493       .  S
C895       C4161   1.481       .  S
C895        C896   1.401       .  A
C895        C900   1.408       .  A
C896        H901   1.084       .  S
C896        C897   1.398       .  A
C897       C5068   1.481       .  S
C897        C898   1.403       .  A
C898        H902   1.080       .  S
C898        C899   1.416       .  A
C899       C3961   1.516       .  S
C899        C900   1.412       .  A
C900        H903   1.077       .  S
C904       C5058   1.480       .  S
C904        C905   1.396       .  A
C904        C909   1.408       .  A
C905        H910   1.085       .  S
C905        C906   1.397       .  A
C906       C3968   1.477       .  S
C906        C907   1.396       .  A
C907        H911   1.084       .  S
C907        C908   1.404       .  A
C908       C3948   1.481       .  S
C908        C909   1.414       .  A
C909        H912   1.083       .  S
C913       C3938   1.482       .  S
C913        C914   1.408       .  A
C913        C918   1.398       .  A
C914        H919   1.083       .  S
C914        C915   1.413       .  A
C915       C4031   1.479       .  S
C915        C916   1.403       .  A
C916        H920   1.080       .  S
C916        C917   1.401       .  A
C917       C3991   1.489       .  S
C917        C918   1.401       .  A
C918        H921   1.084       .  S
C922       C4838   1.481       .  S
C922        C923   1.400       .  A
C922        C927   1.398       .  A
C923        H928   1.083       .  S
C923        C924   1.404       .  A
C924       C3931   1.473       .  S
C924        C925   1.410       .  A
C925        H929   1.081       .  S
C925        C926   1.405       .  A
C926       C3981   1.497       .  S
C926        C927   1.399       .  A
C927        H930   1.081       .  S
C931       C4851   1.477       .  S
C931        C932   1.403       .  A
C931        C936   1.405       .  A
C932        H937   1.084       .  S
C932        C933   1.404       .  A
C933       C4021   1.480       .  S
C933        C934   1.407       .  A
C934        H938   1.084       .  S
C934        C935   1.404       .  A
C935       C4001   1.487       .  S
C935        C936   1.403       .  A
C936        H939   1.084       .  S
C940       C4171   1.478       .  S
C940        C941   1.410       .  A
C940        C945   1.400       .  A
C941        H946   1.083       .  S
C941        C942   1.410       .  A
C942       C3921   1.481       .  S
C942        C943   1.405       .  A
C943        H947   1.084       .  S
C943        C944   1.400       .  A
C944       C4011   1.477       .  S
C944        C945   1.395       .  A
C945        H948   1.085       .  S
O949       Mg951   2.135       .  S
O949       Mg957   2.169       .  S
O949        C984   1.232       .  S
C950        O963   1.235       .  S
C950        O987   1.270       .  A
C950        H989   1.081       .  S
Mg951       O980   2.163       .  S
Mg951       O995   2.254       .  S
Mg951       O991   2.237       .  S
Mg951       O962   2.282       .  S
O952       Mg994   2.169       .  S
O952       Mg977   2.131       .  S
O952        C973   1.233       .  S
O953        C984   1.266       .  A
O953       Mg977   2.283       .  S
C954        O956   1.275       .  A
C954        O968   1.271       .  A
C954       C3951   1.478       .  S
O955        C983   1.270       .  A
O955       Mg957   2.304       .  S
O956       Mg988   2.299       .  S
Mg957       O963   2.168       .  S
Mg957       O971   2.316       .  S
Mg957       O959   2.346       .  S
C958        O996   1.269       .  A
C958        O964   1.275       .  A
C958       C3928   1.491       .  S
O959        C966   1.281       .  A
H960        C973   1.081       .  S
C961        O975   1.234       .  S
C961        O976   1.269       .  A
C961        H986   1.081       .  S
O962        C985   1.266       .  A
O963       Mg977   2.171       .  S
O964       Mg994   2.318       .  S
C965        O978   1.273       .  A
C965        O970   1.270       .  A
C965       C4071   1.474       .  S
C966        O993   1.265       .  A
C966       C4088   1.494       .  S
Mg967       O974   2.124       .  S
Mg967       O975   2.164       .  S
Mg967       O968   2.263       .  S
Mg967       O969   2.286       .  S
Mg967       O996   2.225       .  S
O969        C973   1.267       .  A
O970       Mg977   2.261       .  S
O971        C990   1.278       .  A
O972        C992   1.274       .  A
O972       Mg988   2.313       .  S
O974       Mg988   2.169       .  S
O974        C985   1.234       .  S
O975       Mg994   2.151       .  S
O976       Mg988   2.298       .  S
Mg977       O993   2.221       .  S
O978       Mg994   2.294       .  S
H979        C984   1.081       .  S
O980       Mg988   2.158       .  S
O980        C983   1.235       .  S
H981        C983   1.081       .  S
H982        C985   1.081       .  S
O987       Mg994   2.306       .  S
C990        O995   1.271       .  A
C990       C4231   1.481       .  S
O991        C992   1.270       .  A
C992       C4221   1.492       .  S
O997       Mg999   2.164       .  S
O997      Mg1005   2.149   1_565  S
O997       C1032   1.236       .  S
C998       O1011   1.234   1_554  S
C998       O1035   1.269       .  A
C998       H1037   1.081       .  S
Mg999      O1028   2.168   1_556  S
Mg999      O1043   2.296       .  S
Mg999      O1039   2.302       .  S
Mg999      O1010   2.298       .  S
O1000     Mg1042   2.169       .  S
O1000     Mg1025   2.174   1_564  S
O1000      C1021   1.235   1_554  S
O1001      C1032   1.272       .  A
O1001     Mg1025   2.320   1_565  S
C1002      O1004   1.268       .  A
C1002      O1016   1.278       .  A
C1002      C3888   1.483       .  S
O1003      C1031   1.270   1_556  A
O1003     Mg1005   2.298   1_565  S
O1004     Mg1036   2.225       .  S
Mg1005     O1011   2.152       .  S
Mg1005     O1019   2.248   1_545  S
Mg1005     O1007   2.278       .  S
C1006      O1044   1.275       .  A
C1006      O1012   1.274       .  A
C1006      C4501   1.483       .  S
O1007      C1014   1.270       .  A
H1008      C1021   1.081       .  S
C1009      O1023   1.233       .  S
C1009      O1024   1.266       .  A
C1009      H1034   1.081       .  S
O1010      C1033   1.268       .  A
O1011     Mg1025   2.154       .  S
O1012     Mg1042   2.283       .  S
C1013      O1026   1.270       .  A
C1013      O1018   1.277   1_554  A
C1013      C4521   1.496       .  S
C1014      O1041   1.276       .  A
C1014      C3898   1.486       .  S
Mg1015     O1022   2.161       .  S
Mg1015     O1023   2.166       .  S
Mg1015     O1016   2.328       .  S
Mg1015     O1017   2.307       .  S
Mg1015     O1044   2.301       .  S
O1017      C1021   1.271   1_554  A
O1018     Mg1025   2.330       .  S
O1019      C1038   1.268       .  A
O1020      C1040   1.273   1_554  A
O1020     Mg1036   2.279       .  S
O1022     Mg1036   2.174       .  S
O1022      C1033   1.234   1_554  S
O1023     Mg1042   2.131       .  S
O1024     Mg1036   2.282       .  S
Mg1025     O1041   2.320       .  S
O1026     Mg1042   2.234   1_545  S
H1027      C1032   1.081       .  S
O1028     Mg1036   2.134       .  S
O1028      C1031   1.235       .  S
H1029      C1031   1.081       .  S
H1030      C1033   1.081       .  S
O1035     Mg1042   2.297   1_545  S
C1038      O1043   1.272       .  A
C1038      C3908   1.472       .  S
O1039      C1040   1.273       .  A
C1040      C3878   1.491       .  S
O1045     Mg1047   2.170       .  S
O1045     Mg1053   2.143       .  S
O1045      C1080   1.235       .  S
C1046      O1059   1.235       .  S
C1046      O1083   1.268       .  A
C1046      H1085   1.081       .  S
Mg1047     O1076   2.144       .  S
Mg1047     O1091   2.325       .  S
Mg1047     O1087   2.281       .  S
Mg1047     O1058   2.314       .  S
O1048     Mg1090   2.160       .  S
O1048     Mg1073   2.170       .  S
O1048      C1069   1.234       .  S
O1049      C1080   1.273       .  A
O1049     Mg1073   2.325       .  S
C1050      O1052   1.267       .  A
C1050      O1064   1.273       .  A
C1050      C5181   1.465       .  S
O1051      C1079   1.271       .  A
O1051     Mg1053   2.304       .  S
O1052     Mg1084   2.232       .  S
Mg1053     O1059   2.144       .  S
Mg1053     O1067   2.241       .  S
Mg1053     O1055   2.289       .  S
C1054      O1092   1.274       .  A
C1054      O1060   1.271       .  A
C1054      C3848   1.484       .  S
O1055      C1062   1.270       .  A
H1056      C1069   1.081       .  S
C1057      O1071   1.235       .  S
C1057      O1072   1.267       .  A
C1057      H1082   1.081       .  S
O1058      C1081   1.271       .  A
O1059     Mg1073   2.156       .  S
O1060     Mg1090   2.280       .  S
C1061      O1074   1.257       .  A
C1061      O1066   1.279       .  A
C1061      C3838   1.491       .  S
C1062      O1089   1.277       .  A
C1062      C3861   1.498       .  S
Mg1063     O1070   2.155       .  S
Mg1063     O1071   2.154       .  S
Mg1063     O1064   2.310       .  S
Mg1063     O1065   2.306       .  S
Mg1063     O1092   2.297       .  S
O1065      C1069   1.270       .  A
O1066     Mg1073   2.365       .  S
O1067      C1086   1.268       .  A
O1068      C1088   1.269       .  A
O1068     Mg1084   2.291       .  S
O1070     Mg1084   2.153       .  S
O1070      C1081   1.235       .  S
O1071     Mg1090   2.113       .  S
O1072     Mg1084   2.284       .  S
Mg1073     O1089   2.312       .  S
O1074     Mg1090   2.165       .  S
H1075      C1080   1.081       .  S
O1076     Mg1084   2.153       .  S
O1076      C1079   1.236       .  S
H1077      C1079   1.081       .  S
H1078      C1081   1.081       .  S
O1083     Mg1090   2.288       .  S
C1086      O1091   1.273       .  A
C1086      C3871   1.476       .  S
O1087      C1088   1.271       .  A
C1088      C5121   1.488       .  S
O1093     Mg1095   2.143       .  S
O1093     Mg1101   2.143       .  S
O1093      C1128   1.234       .  S
C1094      O1107   1.236       .  S
C1094      O1131   1.272       .  A
C1094      H1133   1.081       .  S
Mg1095     O1124   2.140       .  S
Mg1095     O1139   2.299       .  S
Mg1095     O1135   2.226       .  S
Mg1095     O1106   2.297       .  S
O1096     Mg1138   2.148       .  S
O1096     Mg1121   2.136       .  S
O1096      C1117   1.234       .  S
O1097      C1128   1.269       .  A
O1097     Mg1121   2.299       .  S
C1098      O1100   1.273       .  A
C1098      O1112   1.272       .  A
C1098      C3798   1.485       .  S
O1099      C1127   1.273       .  A
O1099     Mg1101   2.322       .  S
O1100     Mg1132   2.278       .  S
Mg1101     O1107   2.168       .  S
Mg1101     O1115   2.307       .  S
Mg1101     O1103   2.329       .  S
C1102      O1140   1.268       .  A
C1102      O1108   1.273       .  A
C1102      C3808   1.463       .  S
O1103      C1110   1.276       .  A
H1104      C1117   1.081       .  S
C1105      O1119   1.233       .  S
C1105      O1120   1.268       .  A
C1105      H1130   1.081       .  S
O1106      C1129   1.270       .  A
O1107     Mg1121   2.158       .  S
O1108     Mg1138   2.308       .  S
C1109      O1122   1.271       .  A
C1109      O1114   1.272       .  A
C1109      C5141   1.492       .  S
C1110      O1137   1.267       .  A
C1110      C5081   1.472       .  S
Mg1111     O1118   2.137       .  S
Mg1111     O1119   2.159       .  S
Mg1111     O1112   2.286       .  S
Mg1111     O1113   2.295       .  S
Mg1111     O1140   2.233       .  S
O1113      C1117   1.268       .  A
O1114     Mg1121   2.281       .  S
O1115      C1134   1.274       .  A
O1116      C1136   1.271       .  A
O1116     Mg1132   2.309       .  S
O1118     Mg1132   2.166       .  S
O1118      C1129   1.237       .  S
O1119     Mg1138   2.154       .  S
O1120     Mg1132   2.297       .  S
Mg1121     O1137   2.217       .  S
O1122     Mg1138   2.284       .  S
H1123      C1128   1.081       .  S
O1124     Mg1132   2.166       .  S
O1124      C1127   1.235       .  S
H1125      C1127   1.081       .  S
H1126      C1129   1.081       .  S
O1131     Mg1138   2.313       .  S
C1134      O1139   1.270       .  A
C1134      C3828   1.496       .  S
O1135      C1136   1.265       .  A
C1136      C3818   1.466       .  S
O1141     Mg1143   2.132       .  S
O1141     Mg1149   2.177       .  S
O1141      C1176   1.234       .  S
C1142      O1155   1.236       .  S
C1142      O1179   1.272       .  A
C1142      H1181   1.081       .  S
Mg1143     O1172   2.167       .  S
Mg1143     O1187   2.258       .  S
Mg1143     O1183   2.225       .  S
Mg1143     O1154   2.285       .  S
O1144     Mg1186   2.156       .  S
O1144     Mg1169   2.134       .  S
O1144      C1165   1.233       .  S
O1145      C1176   1.267       .  A
O1145     Mg1169   2.287       .  S
C1146      O1148   1.274       .  A
C1146      O1160   1.272       .  A
C1146      C5161   1.474       .  S
O1147      C1175   1.269       .  A
O1147     Mg1149   2.302       .  S
O1148     Mg1180   2.291       .  S
Mg1149     O1155   2.155       .  S
Mg1149     O1163   2.295       .  S
Mg1149     O1151   2.316       .  S
C1150      O1188   1.269       .  A
C1150      O1156   1.279       .  A
C1150      C5098   1.496       .  S
O1151      C1158   1.276       .  A
H1152      C1165   1.081       .  S
C1153      O1167   1.235       .  S
C1153      O1168   1.270       .  A
C1153      H1178   1.081       .  S
O1154      C1177   1.266       .  A
O1155     Mg1169   2.157       .  S
O1156     Mg1186   2.337       .  S
C1157      O1170   1.275       .  A
C1157      O1162   1.269       .  A
C1157      C3758   1.495       .  S
C1158      O1185   1.267       .  A
C1158      C3768   1.481       .  S
Mg1159     O1166   2.142       .  S
Mg1159     O1167   2.163       .  S
Mg1159     O1160   2.270       .  S
Mg1159     O1161   2.289       .  S
Mg1159     O1188   2.242       .  S
O1161      C1165   1.267       .  A
O1162     Mg1169   2.249       .  S
O1163      C1182   1.273       .  A
O1164      C1184   1.278       .  A
O1164     Mg1180   2.339       .  S
O1166     Mg1180   2.171       .  S
O1166      C1177   1.233       .  S
O1167     Mg1186   2.167       .  S
O1168     Mg1180   2.306       .  S
Mg1169     O1185   2.237       .  S
O1170     Mg1186   2.316       .  S
H1171      C1176   1.081       .  S
O1172     Mg1180   2.159       .  S
O1172      C1175   1.234       .  S
H1173      C1175   1.081       .  S
H1174      C1177   1.081       .  S
O1179     Mg1186   2.312       .  S
C1182      O1187   1.269       .  A
C1182      C3778   1.477       .  S
O1183      C1184   1.267       .  A
C1184      C3788   1.484       .  S
O1189     Mg1191   2.141       .  S
O1189     Mg1197   2.165       .  S
O1189      C1224   1.234       .  S
C1190      O1203   1.235       .  S
C1190      O1227   1.269       .  A
C1190      H1229   1.081       .  S
Mg1191     O1220   2.161       .  S
Mg1191     O1235   2.308       .  S
Mg1191     O1231   2.282       .  S
Mg1191     O1202   2.306       .  S
O1192     Mg1234   2.149       .  S
O1192     Mg1217   2.160       .  S
O1192      C1213   1.235       .  S
O1193      C1224   1.268       .  A
O1193     Mg1217   2.293       .  S
C1194      O1196   1.265       .  A
C1194      O1208   1.279       .  A
C1194      C3701   1.491       .  S
O1195      C1223   1.267       .  A
O1195     Mg1197   2.284       .  S
O1196     Mg1228   2.216       .  S
Mg1197     O1203   2.142       .  S
Mg1197     O1211   2.265       .  S
Mg1197     O1199   2.253       .  S
C1198      O1236   1.276       .  A
C1198      O1204   1.272       .  A
C1198      C3751   1.486       .  S
O1199      C1206   1.269       .  A
H1200      C1213   1.081       .  S
C1201      O1215   1.234       .  S
C1201      O1216   1.268       .  A
C1201      H1226   1.081       .  S
O1202      C1225   1.271       .  A
O1203     Mg1217   2.177       .  S
O1204     Mg1234   2.276       .  S
C1205      O1218   1.272       .  A
C1205      O1210   1.275       .  A
C1205      C3738   1.488       .  S
C1206      O1233   1.275       .  A
C1206      C3728   1.485       .  S
Mg1207     O1214   2.175       .  S
Mg1207     O1215   2.163       .  S
Mg1207     O1208   2.342       .  S
Mg1207     O1209   2.315       .  S
Mg1207     O1236   2.309       .  S
O1209      C1213   1.271       .  A
O1210     Mg1217   2.313       .  S
O1211      C1230   1.272       .  A
O1212      C1232   1.274       .  A
O1212     Mg1228   2.300       .  S
O1214     Mg1228   2.174       .  S
O1214      C1225   1.236       .  S
O1215     Mg1234   2.160       .  S
O1216     Mg1228   2.297       .  S
Mg1217     O1233   2.301       .  S
O1218     Mg1234   2.266       .  S
H1219      C1224   1.081       .  S
O1220     Mg1228   2.124       .  S
O1220      C1223   1.234       .  S
H1221      C1223   1.081       .  S
H1222      C1225   1.081       .  S
O1227     Mg1234   2.294       .  S
C1230      O1235   1.275       .  A
C1230      C3718   1.483       .  S
O1231      C1232   1.272       .  A
C1232      C3708   1.482       .  S
O1237     Mg1239   2.167       .  S
O1237     Mg1245   2.158       .  S
O1237      C1272   1.235       .  S
C1238      O1251   1.234       .  S
C1238      O1275   1.267       .  A
C1238      H1277   1.081       .  S
Mg1239     O1268   2.161       .  S
Mg1239     O1283   2.357       .  S
Mg1239     O1279   2.311       .  S
Mg1239     O1250   2.315       .  S
O1240     Mg1282   2.157       .  S
O1240     Mg1265   2.154       .  S
O1240      C1261   1.235       .  S
O1241      C1272   1.270       .  A
O1241     Mg1265   2.303   1_455  S
C1242      O1244   1.265   1_655  A
C1242      O1256   1.273       .  A
C1242      C4711   1.470       .  S
O1243      C1271   1.267       .  A
O1243     Mg1245   2.282       .  S
O1244     Mg1276   2.225       .  S
Mg1245     O1251   2.118   1_455  S
Mg1245     O1259   2.179       .  S
Mg1245     O1247   2.269       .  S
C1246      O1284   1.270       .  A
C1246      O1252   1.272       .  A
C1246      C3658   1.467       .  S
O1247      C1254   1.271       .  A
H1248      C1261   1.081       .  S
C1249      O1263   1.237       .  S
C1249      O1264   1.271       .  A
C1249      H1274   1.081       .  S
O1250      C1273   1.271       .  A
O1251     Mg1265   2.156       .  S
O1252     Mg1282   2.298       .  S
C1253      O1266   1.271       .  A
C1253      O1258   1.275       .  A
C1253      C3668   1.466       .  S
C1254      O1281   1.275   1_455  A
C1254      C3678   1.488       .  S
Mg1255     O1262   2.162   1_655  S
Mg1255     O1263   2.148       .  S
Mg1255     O1256   2.322       .  S
Mg1255     O1257   2.309       .  S
Mg1255     O1284   2.267       .  S
O1257      C1261   1.271       .  A
O1258     Mg1265   2.314       .  S
O1259      C1278   1.259       .  A
O1260      C1280   1.272       .  A
O1260     Mg1276   2.271       .  S
O1262     Mg1276   2.144       .  S
O1262      C1273   1.234       .  S
O1263     Mg1282   2.156       .  S
O1264     Mg1276   2.305   1_655  S
Mg1265     O1281   2.311       .  S
O1266     Mg1282   2.245       .  S
H1267      C1272   1.081       .  S
O1268     Mg1276   2.127       .  S
O1268      C1271   1.235       .  S
H1269      C1271   1.081       .  S
H1270      C1273   1.081       .  S
O1275     Mg1282   2.285       .  S
C1278      O1283   1.278       .  A
C1278      C3688   1.491       .  S
O1279      C1280   1.276       .  A
C1280      C4721   1.496       .  S
O1285     Mg1287   2.147       .  S
O1285     Mg1293   2.144       .  S
O1285      C1320   1.236       .  S
C1286      O1299   1.233   1_455  S
C1286      O1323   1.267       .  A
C1286      H1325   1.081       .  S
Mg1287     O1316   2.163   1_655  S
Mg1287     O1331   2.299       .  S
Mg1287     O1327   2.271       .  S
Mg1287     O1298   2.297       .  S
O1288     Mg1330   2.170       .  S
O1288     Mg1313   2.169   1_455  S
O1288      C1309   1.235       .  S
O1289      C1320   1.273       .  A
O1289     Mg1313   2.322       .  S
C1290      O1292   1.270       .  A
C1290      O1304   1.276       .  A
C1290      C3618   1.493       .  S
O1291      C1319   1.270   1_655  A
O1291     Mg1293   2.294       .  S
O1292     Mg1324   2.231       .  S
Mg1293     O1299   2.143       .  S
Mg1293     O1307   2.242       .  S
Mg1293     O1295   2.268       .  S
C1294      O1332   1.274       .  A
C1294      O1300   1.272       .  A
C1294      C4931   1.475       .  S
O1295      C1302   1.269       .  A
H1296      C1309   1.081   1_655  S
C1297      O1311   1.234       .  S
C1297      O1312   1.267       .  A
C1297      H1322   1.081       .  S
O1298      C1321   1.268   1_655  A
O1299     Mg1313   2.142       .  S
O1300     Mg1330   2.271       .  S
C1301      O1314   1.269       .  A
C1301      O1306   1.278   1_455  A
C1301      C4891   1.486       .  S
C1302      O1329   1.273       .  A
C1302      C3648   1.494       .  S
Mg1303     O1310   2.150       .  S
Mg1303     O1311   2.165       .  S
Mg1303     O1304   2.325       .  S
Mg1303     O1305   2.309       .  S
Mg1303     O1332   2.289       .  S
O1305      C1309   1.271       .  A
O1306     Mg1313   2.326       .  S
O1307      C1326   1.268       .  A
O1308      C1328   1.272   1_455  A
O1308     Mg1324   2.284       .  S
O1310     Mg1324   2.165       .  S
O1310      C1321   1.233       .  S
O1311     Mg1330   2.140       .  S
O1312     Mg1324   2.287       .  S
Mg1313     O1329   2.316       .  S
O1314     Mg1330   2.242       .  S
H1315      C1320   1.081       .  S
O1316     Mg1324   2.135       .  S
O1316      C1319   1.236       .  S
H1317      C1319   1.081       .  S
H1318      C1321   1.081       .  S
O1323     Mg1330   2.294       .  S
C1326      O1331   1.272       .  A
C1326      C3638   1.475       .  S
O1327      C1328   1.272       .  A
C1328      C3628   1.481       .  S
C1333      C3608   1.486       .  S
C1333      C1334   1.421       .  A
C1333      C1338   1.410       .  A
C1334      C3598   1.488       .  S
C1334      C1335   1.423       .  A
C1335      C3558   1.500       .  S
C1335      C1336   1.417       .  A
C1336      C3568   1.494       .  S
C1336      C1337   1.416       .  A
C1337      C3588   1.474       .  S
C1337      C1338   1.413       .  A
C1338      C3578   1.499       .  S
C1339      C3771   1.476       .  S
C1339      C1340   1.406       .  A
C1339      C1344   1.403       .  A
C1340      H1345   1.082       .  S
C1340      C1341   1.409       .  A
C1341      C3611   1.499       .  S
C1341      C1342   1.400       .  A
C1342      H1346   1.081       .  S
C1342      C1343   1.399       .  A
C1343      C3548   1.476       .  S
C1343      C1344   1.402       .  A
C1344      H1347   1.083       .  S
C1348      C3868   1.477       .  S
C1348      C1349   1.400       .  A
C1348      C1353   1.404       .  A
C1349      H1354   1.080       .  S
C1349      C1350   1.406       .  A
C1350      C3561   1.504       .  S
C1350      C1351   1.411       .  A
C1351      H1355   1.081       .  S
C1351      C1352   1.406       .  A
C1352      C3538   1.481       .  S
C1352      C1353   1.404       .  A
C1353      H1356   1.083       .  S
C1357      C3641   1.471       .  S
C1357      C1358   1.404       .  A
C1357      C1362   1.405       .  A
C1358      H1363   1.083       .  S
C1358      C1359   1.404       .  A
C1359      C3858   1.487       .  S
C1359      C1360   1.408       .  A
C1360      H1364   1.083       .  S
C1360      C1361   1.403       .  A
C1361      C3571   1.493       .  S
C1361      C1362   1.402       .  A
C1362      H1365   1.084       .  S
C1366      C3761   1.472       .  S
C1366      C1367   1.399       .  A
C1366      C1371   1.408       .  A
C1367      H1372   1.085       .  S
C1367      C1368   1.396       .  A
C1368      C3601   1.476       .  S
C1368      C1369   1.398       .  A
C1369      H1373   1.084       .  S
C1369      C1370   1.401       .  A
C1370      C3528   1.474       .  S
C1370      C1371   1.408       .  A
C1371      H1374   1.083       .  S
C1375      C3651   1.477       .  S
C1375      C1376   1.410       .  A
C1375      C1380   1.400       .  A
C1376      H1381   1.083       .  S
C1376      C1377   1.410       .  A
C1377      C3748   1.475       .  S
C1377      C1378   1.397       .  A
C1378      H1382   1.084       .  S
C1378      C1379   1.397       .  A
C1379      C3591   1.481       .  S
C1379      C1380   1.397       .  A
C1380      H1383   1.083       .  S
C1384      C3741   1.480       .  S
C1384      C1385   1.404       .  A
C1384      C1389   1.403       .  A
C1385      H1390   1.083       .  S
C1385      C1386   1.405       .  A
C1386      C3518   1.478       .  S
C1386      C1387   1.406       .  A
C1387      H1391   1.083       .  S
C1387      C1388   1.407       .  A
C1388      C3581   1.497       .  S
C1388      C1389   1.407       .  A
C1389      H1392   1.084       .  S
O1393     Mg1395   2.145       .  S
O1393     Mg1401   2.151       .  S
O1393      C1428   1.236       .  S
C1394      O1407   1.233       .  S
C1394      O1431   1.269       .  A
C1394      H1433   1.081       .  S
Mg1395     O1424   2.162       .  S
Mg1395     O1439   2.290       .  S
Mg1395     O1435   2.225       .  S
Mg1395     O1406   2.292       .  S
O1396     Mg1438   2.154       .  S
O1396     Mg1421   2.157       .  S
O1396      C1417   1.238       .  S
O1397      C1428   1.270       .  A
O1397     Mg1421   2.300       .  S
C1398      O1400   1.273       .  A
C1398      O1412   1.269       .  A
C1398      C3541   1.497       .  S
O1399      C1427   1.271       .  A
O1399     Mg1401   2.306       .  S
O1400     Mg1432   2.315       .  S
Mg1401     O1407   2.165       .  S
Mg1401     O1415   2.292       .  S
Mg1401     O1403   2.307       .  S
C1402      O1440   1.266       .  A
C1402      O1408   1.273       .  A
C1402      C3531   1.474       .  S
O1403      C1410   1.273       .  A
H1404      C1417   1.081       .  S
C1405      O1419   1.236       .  S
C1405      O1420   1.274       .  A
C1405      H1430   1.081       .  S
O1406      C1429   1.268       .  A
O1407     Mg1421   2.152       .  S
O1408     Mg1438   2.325       .  S
C1409      O1422   1.272       .  A
C1409      O1414   1.273       .  A
C1409      C3511   1.476       .  S
C1410      O1437   1.268       .  A
C1410      C3501   1.464       .  S
Mg1411     O1418   2.144       .  S
Mg1411     O1419   2.137       .  S
Mg1411     O1412   2.278       .  S
Mg1411     O1413   2.310       .  S
Mg1411     O1440   2.229       .  S
O1413      C1417   1.273       .  A
O1414     Mg1421   2.314       .  S
O1415      C1434   1.272       .  A
O1416      C1436   1.278       .  A
O1416     Mg1432   2.342       .  S
O1418     Mg1432   2.149       .  S
O1418      C1429   1.234       .  S
O1419     Mg1438   2.164       .  S
O1420     Mg1432   2.329       .  S
Mg1421     O1437   2.237       .  S
O1422     Mg1438   2.275       .  S
H1423      C1428   1.081       .  S
O1424     Mg1432   2.161       .  S
O1424      C1427   1.235       .  S
H1425      C1427   1.081       .  S
H1426      C1429   1.081       .  S
O1431     Mg1438   2.310       .  S
C1434      O1439   1.271       .  A
C1434      C3488   1.474       .  S
O1435      C1436   1.267       .  A
C1436      C3481   1.486       .  S
O1441     Mg1443   2.139       .  S
O1441     Mg1449   2.158   1_554  S
O1441      C1476   1.236       .  S
C1442      O1455   1.233   1_556  S
C1442      O1479   1.269   1_556  A
C1442      H1481   1.081       .  S
Mg1443     O1472   2.151       .  S
Mg1443     O1487   2.278   1_554  S
Mg1443     O1483   2.236       .  S
Mg1443     O1454   2.301       .  S
O1444     Mg1486   2.175       .  S
O1444     Mg1469   2.147       .  S
O1444      C1465   1.235       .  S
O1445      C1476   1.270       .  A
O1445     Mg1469   2.297   1_545  S
C1446      O1448   1.268   1_565  A
C1446      O1460   1.271       .  A
C1446      C3468   1.474       .  S
O1447      C1475   1.269       .  A
O1447     Mg1449   2.303       .  S
O1448     Mg1480   2.268       .  S
Mg1449     O1455   2.167   1_546  S
Mg1449     O1463   2.290       .  S
Mg1449     O1451   2.313       .  S
C1450      O1488   1.263       .  A
C1450      O1456   1.279       .  A
C1450      C3458   1.490       .  S
O1451      C1458   1.273       .  A
H1452      C1465   1.081       .  S
C1453      O1467   1.236       .  S
C1453      O1468   1.272       .  A
C1453      H1478   1.081       .  S
O1454      C1477   1.269       .  A
O1455     Mg1469   2.151       .  S
O1456     Mg1486   2.349       .  S
C1457      O1470   1.277       .  A
C1457      O1462   1.273       .  A
C1457      C4428   1.496       .  S
C1458      O1485   1.268   1_545  A
C1458      C4451   1.468       .  S
Mg1459     O1466   2.139   1_565  S
Mg1459     O1467   2.154       .  S
Mg1459     O1460   2.305       .  S
Mg1459     O1461   2.294       .  S
Mg1459     O1488   2.203       .  S
O1461      C1465   1.269       .  A
O1462     Mg1469   2.274       .  S
O1463      C1482   1.273       .  A
O1464      C1484   1.271       .  A
O1464     Mg1480   2.299       .  S
O1466     Mg1480   2.138       .  S
O1466      C1477   1.235       .  S
O1467     Mg1486   2.168       .  S
O1468     Mg1480   2.317   1_565  S
Mg1469     O1485   2.233   1_554  S
O1470     Mg1486   2.315       .  S
H1471      C1476   1.081       .  S
O1472     Mg1480   2.149       .  S
O1472      C1475   1.234   1_554  S
H1473      C1475   1.081       .  S
H1474      C1477   1.081       .  S
O1479     Mg1486   2.306       .  S
C1482      O1487   1.272       .  A
C1482      C3451   1.485       .  S
O1483      C1484   1.268       .  A
C1484      C3438   1.463       .  S
O1489     Mg1491   2.129       .  S
O1489     Mg1497   2.137       .  S
O1489      C1524   1.233       .  S
C1490      O1503   1.235   1_556  S
C1490      O1527   1.271       .  A
C1490      H1529   1.081       .  S
Mg1491     O1520   2.147   1_554  S
Mg1491     O1535   2.259       .  S
Mg1491     O1531   2.212       .  S
Mg1491     O1502   2.289       .  S
O1492     Mg1534   2.181   1_554  S
O1492     Mg1517   2.142       .  S
O1492      C1513   1.234       .  S
O1493      C1524   1.267       .  A
O1493     Mg1517   2.292       .  S
C1494      O1496   1.274       .  A
C1494      O1508   1.273       .  A
C1494      C3421   1.474       .  S
O1495      C1523   1.272   1_554  A
O1495     Mg1497   2.317       .  S
O1496     Mg1528   2.281       .  S
Mg1497     O1503   2.160       .  S
Mg1497     O1511   2.309       .  S
Mg1497     O1499   2.306       .  S
C1498      O1536   1.271       .  A
C1498      O1504   1.279       .  A
C1498      C3428   1.487       .  S
O1499      C1506   1.275       .  A
H1500      C1513   1.081       .  S
C1501      O1515   1.233       .  S
C1501      O1516   1.268       .  A
C1501      H1526   1.081       .  S
O1502      C1525   1.269       .  A
O1503     Mg1517   2.170       .  S
O1504     Mg1534   2.331       .  S
C1505      O1518   1.275       .  A
C1505      O1510   1.267   1_556  A
C1505      C4691   1.488       .  S
C1506      O1533   1.271       .  A
C1506      C4738   1.478       .  S
Mg1507     O1514   2.143       .  S
Mg1507     O1515   2.161       .  S
Mg1507     O1508   2.273       .  S
Mg1507     O1509   2.288       .  S
Mg1507     O1536   2.250       .  S
O1509      C1513   1.268   1_556  A
O1510     Mg1517   2.244       .  S
O1511      C1530   1.272       .  A
O1512      C1532   1.277   1_556  A
O1512     Mg1528   2.332       .  S
O1514     Mg1528   2.180       .  S
O1514      C1525   1.236   1_556  S
O1515     Mg1534   2.155       .  S
O1516     Mg1528   2.297       .  S
Mg1517     O1533   2.259       .  S
O1518     Mg1534   2.309       .  S
H1519      C1524   1.081       .  S
O1520     Mg1528   2.144       .  S
O1520      C1523   1.236       .  S
H1521      C1523   1.081       .  S
H1522      C1525   1.081       .  S
O1527     Mg1534   2.306       .  S
C1530      O1535   1.267       .  A
C1530      C3398   1.490       .  S
O1531      C1532   1.264       .  A
C1532      C3408   1.479       .  S
C1537      C3368   1.483       .  S
C1537      C1538   1.415       .  A
C1537      C1542   1.420       .  A
C1538      C3388   1.491       .  S
C1538      C1539   1.412       .  A
C1539      C3378   1.482       .  S
C1539      C1540   1.410       .  A
C1540      C3348   1.490       .  S
C1540      C1541   1.414       .  A
C1541      C3338   1.484   1_554  S
C1541      C1542   1.418       .  A
C1542      C3358   1.493   1_554  S
C1543      C4358   1.483       .  S
C1543      C1544   1.406       .  A
C1543      C1548   1.409       .  A
C1544      H1549   1.083       .  S
C1544      C1545   1.402       .  A
C1545      C3341   1.488       .  S
C1545      C1546   1.399       .  A
C1546      H1550   1.084       .  S
C1546      C1547   1.398       .  A
C1547      C3328   1.477       .  S
C1547      C1548   1.407       .  A
C1548      H1551   1.083       .  S
C1552      C3448   1.476       .  S
C1552      C1553   1.403       .  A
C1552      C1557   1.405       .  A
C1553      H1558   1.083       .  S
C1553      C1554   1.404       .  A
C1554      C3318   1.479       .  S
C1554      C1555   1.404       .  A
C1555      H1559   1.084       .  S
C1555      C1556   1.404       .  A
C1556      C3361   1.491       .  S
C1556      C1557   1.404       .  A
C1557      H1560   1.083       .  S
C1561      C3441   1.468       .  S
C1561      C1562   1.398       .  A
C1561      C1566   1.394       .  A
C1562      H1567   1.083       .  S
C1562      C1563   1.403       .  A
C1563      C5341   1.476       .  S
C1563      C1564   1.410       .  A
C1564      H1568   1.079       .  S
C1564      C1565   1.411       .  A
C1565      C3371   1.504       .  S
C1565      C1566   1.403       .  A
C1566      H1569   1.082       .  S
C1570      C5351   1.466       .  S
C1570      C1571   1.396       .  A
C1570      C1575   1.402       .  A
C1571      H1576   1.083       .  S
C1571      C1572   1.397       .  A
C1572      C3391   1.490       .  S
C1572      C1573   1.407       .  A
C1573      H1577   1.083       .  S
C1573      C1574   1.408       .  A
C1574      C3308   1.480       .  S
C1574      C1575   1.404       .  A
C1575      H1578   1.083       .  S
C1579      C4368   1.466       .  S
C1579      C1580   1.396       .  A
C1579      C1584   1.396       .  A
C1580      H1585   1.084       .  S
C1580      C1581   1.400       .  A
C1581      C3411   1.475       .  S
C1581      C1582   1.409       .  A
C1582      H1586   1.079       .  S
C1582      C1583   1.412       .  A
C1583      C3351   1.506       .  S
C1583      C1584   1.406       .  A
C1584      H1587   1.082       .  S
C1588      C3401   1.474       .  S
C1588      C1589   1.402       .  A
C1588      C1593   1.408       .  A
C1589      H1594   1.083       .  S
C1589      C1590   1.397       .  A
C1590      C3381   1.483       .  S
C1590      C1591   1.398       .  A
C1591      H1595   1.084       .  S
C1591      C1592   1.398       .  A
C1592      C3298   1.472       .  S
C1592      C1593   1.406       .  A
C1593      H1596   1.083       .  S
O1597     Mg1599   2.161       .  S
O1597     Mg1605   2.150       .  S
O1597      C1632   1.236       .  S
C1598      O1611   1.234       .  S
C1598      O1635   1.271       .  A
C1598      H1637   1.081       .  S
Mg1599     O1628   2.143       .  S
Mg1599     O1643   2.298       .  S
Mg1599     O1639   2.240       .  S
Mg1599     O1610   2.298       .  S
O1600     Mg1642   2.156       .  S
O1600     Mg1625   2.139       .  S
O1600      C1621   1.235       .  S
O1601      C1632   1.271       .  A
O1601     Mg1625   2.306       .  S
C1602      O1604   1.275       .  A
C1602      O1616   1.271       .  A
C1602      C3288   1.484       .  S
O1603      C1631   1.271       .  A
O1603     Mg1605   2.315       .  S
O1604     Mg1636   2.307       .  S
Mg1605     O1611   2.163       .  S
Mg1605     O1619   2.282       .  S
Mg1605     O1607   2.330       .  S
C1606      O1644   1.269       .  A
C1606      O1612   1.274       .  A
C1606      C3281   1.494       .  S
O1607      C1614   1.275       .  A
H1608      C1621   1.081       .  S
C1609      O1623   1.234       .  S
C1609      O1624   1.270       .  A
C1609      H1634   1.081       .  S
O1610      C1633   1.270       .  A
O1611     Mg1625   2.149       .  S
O1612     Mg1642   2.324       .  S
C1613      O1626   1.272       .  A
C1613      O1618   1.272       .  A
C1613      C3311   1.471       .  S
C1614      O1641   1.267       .  A
C1614      C3301   1.480       .  S
Mg1615     O1622   2.138       .  S
Mg1615     O1623   2.159       .  S
Mg1615     O1616   2.267       .  S
Mg1615     O1617   2.289       .  S
Mg1615     O1644   2.225       .  S
O1617      C1621   1.268       .  A
O1618     Mg1625   2.297       .  S
O1619      C1638   1.272       .  A
O1620      C1640   1.276       .  A
O1620     Mg1636   2.328       .  S
O1622     Mg1636   2.160       .  S
O1622      C1633   1.236       .  S
O1623     Mg1642   2.155       .  S
O1624     Mg1636   2.303       .  S
Mg1625     O1641   2.228       .  S
O1626     Mg1642   2.282       .  S
H1627      C1632   1.081       .  S
O1628     Mg1636   2.162       .  S
O1628      C1631   1.235       .  S
H1629      C1631   1.081       .  S
H1630      C1633   1.081       .  S
O1635     Mg1642   2.313       .  S
C1638      O1643   1.271       .  A
C1638      C4061   1.473       .  S
O1639      C1640   1.270       .  A
C1640      C4041   1.476       .  S
C1645      C3268   1.502       .  S
C1645      C1646   1.413       .  A
C1645      C1650   1.413       .  A
C1646      C3258   1.486   1_565  S
C1646      C1647   1.419   1_565  A
C1647      C3248   1.495       .  S
C1647      C1648   1.419   1_545  A
C1648      C3228   1.495       .  S
C1648      C1649   1.423       .  A
C1649      C3218   1.501       .  S
C1649      C1650   1.422       .  A
C1650      C3241   1.477       .  S
C1651      C4408   1.479       .  S
C1651      C1652   1.403       .  A
C1651      C1656   1.407       .  A
C1652      H1657   1.084       .  S
C1652      C1653   1.401       .  A
C1653      C3221   1.484       .  S
C1653      C1654   1.401       .  A
C1654      H1658   1.084       .  S
C1654      C1655   1.406       .  A
C1655      C3508   1.485       .  S
C1655      C1656   1.409       .  A
C1656      H1659   1.083       .  S
C1660      C3461   1.474       .  S
C1660      C1661   1.403       .  A
C1660      C1665   1.399       .  A
C1661      H1666   1.083       .  S
C1661      C1662   1.405       .  A
C1662      C3498   1.470       .  S
C1662      C1663   1.401       .  A
C1663      H1667   1.081       .  S
C1663      C1664   1.402       .  A
C1664      C3238   1.496       .  S
C1664      C1665   1.399       .  A
C1665      H1668   1.078       .  S
C1669      C3291   1.478       .  S
C1669      C1670   1.409       .  A
C1669      C1674   1.404       .  A
C1670      H1675   1.084       .  S
C1670      C1671   1.406       .  A
C1671      C3251   1.486       .  S
C1671      C1672   1.399       .  A
C1672      H1676   1.085       .  S
C1672      C1673   1.398       .  A
C1673      C3208   1.469       .  S
C1673      C1674   1.403       .  A
C1674      H1677   1.083       .  S
C1678      C5268   1.479       .  S
C1678      C1679   1.402       .  A
C1678      C1683   1.405       .  A
C1679      H1684   1.084       .  S
C1679      C1680   1.402       .  A
C1680      C3471   1.476       .  S
C1680      C1681   1.406       .  A
C1681      H1685   1.083       .  S
C1681      C1682   1.405       .  A
C1682      C3271   1.494       .  S
C1682      C1683   1.408       .  A
C1683      H1686   1.084       .  S
C1687      C5261   1.485       .  S
C1687      C1688   1.410       .  A
C1687      C1692   1.402       .  A
C1688      H1693   1.083       .  S
C1688      C1689   1.407       .  A
C1689      C3278   1.476       .  S
C1689      C1690   1.397       .  A
C1690      H1694   1.082       .  S
C1690      C1691   1.402       .  A
C1691      C3261   1.492       .  S
C1691      C1692   1.404       .  A
C1692      H1695   1.079       .  S
C1696      C4398   1.486       .  S
C1696      C1697   1.399       .  A
C1696      C1701   1.404   1_545  A
C1697      H1702   1.079       .  S
C1697      C1698   1.412   1_545  A
C1698      C3231   1.510       .  S
C1698      C1699   1.408       .  A
C1699      H1703   1.078       .  S
C1699      C1700   1.406       .  A
C1700      C3198   1.481       .  S
C1700      C1701   1.405       .  A
C1701      H1704   1.083       .  S
O1705     Mg1707   2.166       .  S
O1705     Mg1713   2.160       .  S
O1705      C1740   1.234   1_565  S
C1706      O1719   1.236       .  S
C1706      O1743   1.270       .  A
C1706      H1745   1.081       .  S
Mg1707     O1736   2.151       .  S
Mg1707     O1751   2.302       .  S
Mg1707     O1747   2.289       .  S
Mg1707     O1718   2.303       .  S
O1708     Mg1750   2.150   1_545  S
O1708     Mg1733   2.163       .  S
O1708      C1729   1.235       .  S
O1709      C1740   1.271       .  A
O1709     Mg1733   2.310       .  S
C1710      O1712   1.268       .  A
C1710      O1724   1.272       .  A
C1710      C3551   1.461       .  S
O1711      C1739   1.269       .  A
O1711     Mg1713   2.297       .  S
O1712     Mg1744   2.238       .  S
Mg1713     O1719   2.150       .  S
Mg1713     O1727   2.246       .  S
Mg1713     O1715   2.304   1_565  S
C1714      O1752   1.271       .  A
C1714      O1720   1.272       .  A
C1714      C3201   1.477       .  S
O1715      C1722   1.274       .  A
H1716      C1729   1.081       .  S
C1717      O1731   1.235       .  S
C1717      O1732   1.269       .  A
C1717      H1742   1.081       .  S
O1718      C1741   1.269       .  A
O1719     Mg1733   2.153   1_565  S
O1720     Mg1750   2.295       .  S
C1721      O1734   1.267       .  A
C1721      O1726   1.274       .  A
C1721      C3211   1.470       .  S
C1722      O1749   1.272       .  A
C1722      C4918   1.476       .  S
Mg1723     O1730   2.151       .  S
Mg1723     O1731   2.153       .  S
Mg1723     O1724   2.298       .  S
Mg1723     O1725   2.309       .  S
Mg1723     O1752   2.279       .  S
O1725      C1729   1.271   1_565  A
O1726     Mg1733   2.320       .  S
O1727      C1746   1.269       .  A
O1728      C1748   1.272       .  A
O1728     Mg1744   2.293       .  S
O1730     Mg1744   2.156       .  S
O1730      C1741   1.234       .  S
O1731     Mg1750   2.138       .  S
O1732     Mg1744   2.295       .  S
Mg1733     O1749   2.285       .  S
O1734     Mg1750   2.223   1_545  S
H1735      C1740   1.081       .  S
O1736     Mg1744   2.144       .  S
O1736      C1739   1.235       .  S
H1737      C1739   1.081       .  S
H1738      C1741   1.081       .  S
O1743     Mg1750   2.302       .  S
C1746      O1751   1.272       .  A
C1746      C4908   1.465       .  S
O1747      C1748   1.273       .  A
C1748      C3521   1.480       .  S
C1753      C3158   1.483       .  S
C1753      C1754   1.442       .  A
C1753      C1758   1.431       .  A
C1754      C3191   1.536       .  S
C1754      C1755   1.424       .  A
C1755      C3178   1.484       .  S
C1755      C1756   1.419       .  A
C1756      C3148   1.484       .  S
C1756      C1757   1.407       .  A
C1757      C3138   1.497       .  S
C1757      C1758   1.414       .  A
C1758      C3168   1.507       .  S
C1759      C3831   1.489       .  S
C1759      C1760   1.412       .  A
C1759      C1764   1.407       .  A
C1760      H1765   1.081       .  S
C1760      C1761   1.407       .  A
C1761      C3171   1.514       .  S
C1761      C1762   1.404       .  A
C1762      H1766   1.079       .  S
C1762      C1763   1.412       .  A
C1763      C3131   1.493       .  S
C1763      C1764   1.406       .  A
C1764      H1767   1.081       .  S
C1768      C3841   1.480       .  S
C1768      C1769   1.409       .  A
C1768      C1773   1.402       .  A
C1769      H1774   1.083       .  S
C1769      C1770   1.412       .  A
C1770      C3671   1.483       .  S
C1770      C1771   1.403       .  A
C1771      H1775   1.084       .  S
C1771      C1772   1.396       .  A
C1772      C3151   1.485       .  S
C1772      C1773   1.390       .  A
C1773      H1776   1.081       .  S
C1777      C3821   1.475       .  S
C1777      C1778   1.407       .  A
C1777      C1782   1.403       .  A
C1778      H1783   1.083       .  S
C1778      C1779   1.407       .  A
C1779      C3418   1.478       .  S
C1779      C1780   1.398       .  A
C1780      H1784   1.084       .  S
C1780      C1781   1.397       .  A
C1781      C3161   1.476       .  S
C1781      C1782   1.398       .  A
C1782      H1785   1.084       .  S
C1786      C3851   1.480       .  S
C1786      C1787   1.410       .  A
C1786      C1791   1.407       .  A
C1787      H1792   1.083       .  S
C1787      C1788   1.408       .  A
C1788      C3141   1.494       .  S
C1788      C1789   1.403       .  A
C1789      H1793   1.083       .  S
C1789      C1790   1.398       .  A
C1790      C3118   1.476       .  S
C1790      C1791   1.403       .  A
C1791      H1794   1.083       .  S
C1795      C3431   1.483       .  S
C1795      C1796   1.405       .  A
C1795      C1800   1.404       .  A
C1796      H1801   1.083       .  S
C1796      C1797   1.408       .  A
C1797      C3711   1.488       .  S
C1797      C1798   1.404       .  A
C1798      H1802   1.083       .  S
C1798      C1799   1.408       .  A
C1799      C3188   1.497       .  S
C1799      C1800   1.405       .  A
C1800      H1803   1.081       .  S
C1804      C3661   1.472       .  S
C1804      C1805   1.403       .  A
C1804      C1809   1.404       .  A
C1805      H1810   1.083       .  S
C1805      C1806   1.403       .  A
C1806      C3698   1.486       .  S
C1806      C1807   1.408       .  A
C1807      H1811   1.080       .  S
C1807      C1808   1.403       .  A
C1808      C3181   1.497       .  S
C1808      C1809   1.403       .  A
C1809      H1812   1.083       .  S
O1813     Mg1815   2.143       .  S
O1813     Mg1821   2.169       .  S
O1813      C1848   1.236       .  S
C1814      O1827   1.236       .  S
C1814      O1851   1.274       .  A
C1814      H1853   1.081       .  S
Mg1815     O1844   2.153       .  S
Mg1815     O1859   2.288       .  S
Mg1815     O1855   2.240       .  S
Mg1815     O1826   2.301       .  S
O1816     Mg1858   2.142       .  S
O1816     Mg1841   2.153       .  S
O1816      C1837   1.235       .  S
O1817      C1848   1.270       .  A
O1817     Mg1841   2.295       .  S
C1818      O1820   1.270       .  A
C1818      O1832   1.272       .  A
C1818      C3321   1.470       .  S
O1819      C1847   1.268       .  A
O1819     Mg1821   2.300       .  S
O1820     Mg1852   2.270       .  S
Mg1821     O1827   2.177       .  S
Mg1821     O1835   2.296       .  S
Mg1821     O1823   2.340       .  S
C1822      O1860   1.269       .  A
C1822      O1828   1.274       .  A
C1822      C3331   1.468       .  S
O1823      C1830   1.275       .  A
H1824      C1837   1.081       .  S
C1825      O1839   1.236       .  S
C1825      O1840   1.273       .  A
C1825      H1850   1.081       .  S
O1826      C1849   1.270       .  A
O1827     Mg1841   2.142       .  S
O1828     Mg1858   2.318       .  S
C1829      O1842   1.272       .  A
C1829      O1834   1.271       .  A
C1829      C3128   1.495       .  S
C1830      O1857   1.264       .  A
C1830      C3121   1.483       .  S
Mg1831     O1838   2.152       .  S
Mg1831     O1839   2.155       .  S
Mg1831     O1832   2.303       .  S
Mg1831     O1833   2.306       .  S
Mg1831     O1860   2.244       .  S
O1833      C1837   1.270       .  A
O1834     Mg1841   2.300       .  S
O1835      C1854   1.275       .  A
O1836      C1856   1.274       .  A
O1836     Mg1852   2.321       .  S
O1838     Mg1852   2.144       .  S
O1838      C1849   1.236       .  S
O1839     Mg1858   2.168       .  S
O1840     Mg1852   2.318       .  S
Mg1841     O1857   2.224       .  S
O1842     Mg1858   2.310       .  S
H1843      C1848   1.081       .  S
O1844     Mg1852   2.159       .  S
O1844      C1847   1.233       .  S
H1845      C1847   1.081       .  S
H1846      C1849   1.081       .  S
O1851     Mg1858   2.328       .  S
C1854      O1859   1.274       .  A
C1854      C3108   1.493       .  S
O1855      C1856   1.269       .  A
C1856      C3098   1.474       .  S
O1861     Mg1863   2.157       .  S
O1861     Mg1869   2.145       .  S
O1861      C1896   1.233       .  S
C1862      O1875   1.237       .  S
C1862      O1899   1.271       .  A
C1862      H1901   1.081       .  S
Mg1863     O1892   2.149       .  S
Mg1863     O1907   2.318       .  S
Mg1863     O1903   2.290       .  S
Mg1863     O1874   2.313       .  S
O1864     Mg1906   2.140       .  S
O1864     Mg1889   2.165       .  S
O1864      C1885   1.234   1_455  S
O1865      C1896   1.270       .  A
O1865     Mg1889   2.308   1_565  S
C1866      O1868   1.267   1_545  A
C1866      O1880   1.276       .  A
C1866      C4901   1.481       .  S
O1867      C1895   1.270       .  A
O1867     Mg1869   2.301       .  S
O1868     Mg1900   2.206   1_655  S
Mg1869     O1875   2.149   1_565  S
Mg1869     O1883   2.231       .  S
Mg1869     O1871   2.304       .  S
C1870      O1908   1.275       .  A
C1870      O1876   1.270       .  A
C1870      C3058   1.498       .  S
O1871      C1878   1.273       .  A
H1872      C1885   1.081       .  S
C1873      O1887   1.234       .  S
C1873      O1888   1.268       .  A
C1873      H1898   1.081       .  S
O1874      C1897   1.272   1_455  A
O1875     Mg1889   2.152       .  S
O1876     Mg1906   2.297   1_655  S
C1877      O1890   1.264       .  A
C1877      O1882   1.271       .  A
C1877      C3071   1.471       .  S
C1878      O1905   1.271   1_565  A
C1878      C3078   1.472       .  S
Mg1879     O1886   2.172   1_645  S
Mg1879     O1887   2.150   1_655  S
Mg1879     O1880   2.329       .  S
Mg1879     O1881   2.318       .  S
Mg1879     O1908   2.314       .  S
O1881      C1885   1.271       .  A
O1882     Mg1889   2.320       .  S
O1883      C1902   1.268       .  A
O1884      C1904   1.270       .  A
O1884     Mg1900   2.283       .  S
O1886     Mg1900   2.162       .  S
O1886      C1897   1.235   1_455  S
O1887     Mg1906   2.138       .  S
O1888     Mg1900   2.293   1_545  S
Mg1889     O1905   2.268       .  S
O1890     Mg1906   2.217       .  S
H1891      C1896   1.081       .  S
O1892     Mg1900   2.141       .  S
O1892      C1895   1.236       .  S
H1893      C1895   1.081       .  S
H1894      C1897   1.081       .  S
O1899     Mg1906   2.302       .  S
C1902      O1907   1.274       .  A
C1902      C3091   1.468       .  S
O1903      C1904   1.273       .  A
C1904      C4881   1.481       .  S
C1909      C3038   1.485       .  S
C1909      C1910   1.419       .  A
C1909      C1914   1.420       .  A
C1910      C3048   1.505       .  S
C1910      C1911   1.419       .  A
C1911      C3031   1.490       .  S
C1911      C1912   1.423       .  A
C1912      C3008   1.491       .  S
C1912      C1913   1.416       .  A
C1913      C2998   1.496   1_455  S
C1913      C1914   1.416       .  A
C1914      C3018   1.492   1_455  S
C1915      C5041   1.484       .  S
C1915      C1916   1.405       .  A
C1915      C1920   1.408       .  A
C1916      H1921   1.084       .  S
C1916      C1917   1.405       .  A
C1917      C3111   1.486       .  S
C1917      C1918   1.408       .  A
C1918      H1922   1.084       .  S
C1918      C1919   1.406       .  A
C1919      C3001   1.495       .  S
C1919      C1920   1.405       .  A
C1920      H1923   1.083       .  S
C1924      C3068   1.472       .  S
C1924      C1925   1.404       .  A
C1924      C1929   1.399       .  A
C1925      H1930   1.083       .  S
C1925      C1926   1.405       .  A
C1926      C5331   1.470       .  S
C1926      C1927   1.402       .  A
C1927      H1931   1.084       .  S
C1927      C1928   1.399       .  A
C1928      C3041   1.486       .  S
C1928      C1929   1.399       .  A
C1929      H1932   1.083       .  S
C1933      C3061   1.483       .  S
C1933      C1934   1.404       .  A
C1933      C1938   1.408       .  A
C1934      H1939   1.083       .  S
C1934      C1935   1.405       .  A
C1935      C3101   1.474       .  S
C1935      C1936   1.399       .  A
C1936      H1940   1.078       .  S
C1936      C1937   1.404       .  A
C1937      C3021   1.507       .  S
C1937      C1938   1.409       .  A
C1938      H1941   1.079       .  S
C1942      C5321   1.478       .  S
C1942      C1943   1.408       .  A
C1942      C1947   1.407       .  A
C1943      H1948   1.083       .  S
C1943      C1944   1.404       .  A
C1944      C3051   1.497       .  S
C1944      C1945   1.404       .  A
C1945      H1949   1.083       .  S
C1945      C1946   1.409       .  A
C1946      C2988   1.496       .  S
C1946      C1947   1.407       .  A
C1947      H1950   1.083       .  S
C1951      C3691   1.477       .  S
C1951      C1952   1.403       .  A
C1951      C1956   1.404       .  A
C1952      H1957   1.079       .  S
C1952      C1953   1.400       .  A
C1953      C3028   1.501       .  S
C1953      C1954   1.410       .  A
C1954      H1958   1.080       .  S
C1954      C1955   1.401       .  A
C1955      C2978   1.475       .  S
C1955      C1956   1.406       .  A
C1956      H1959   1.083       .  S
C1960      C5048   1.485       .  S
C1960      C1961   1.405       .  A
C1960      C1965   1.400       .  A
C1961      H1966   1.083       .  S
C1961      C1962   1.410       .  A
C1962      C3681   1.483       .  S
C1962      C1963   1.413       .  A
C1963      H1967   1.082       .  S
C1963      C1964   1.406       .  A
C1964      C3011   1.498       .  S
C1964      C1965   1.395       .  A
C1965      H1968   1.083       .  S
O1969     Mg1971   2.181       .  S
O1969     Mg1977   2.149       .  S
O1969      C2004   1.235       .  S
C1970      O1983   1.236       .  S
C1970      O2007   1.269       .  A
C1970      H2009   1.081       .  S
Mg1971     O2000   2.145       .  S
Mg1971     O2015   2.338       .  S
Mg1971     O2011   2.320       .  S
Mg1971     O1982   2.321       .  S
O1972     Mg2014   2.156       .  S
O1972     Mg1997   2.154       .  S
O1972      C1993   1.233       .  S
O1973      C2004   1.273       .  A
O1973     Mg1997   2.324       .  S
C1974      O1976   1.267       .  A
C1974      O1988   1.273       .  A
C1974      C2981   1.475       .  S
O1975      C2003   1.272       .  A
O1975     Mg1977   2.312       .  S
O1976     Mg2008   2.231       .  S
Mg1977     O1983   2.157       .  S
Mg1977     O1991   2.244       .  S
Mg1977     O1979   2.306       .  S
C1978      O2016   1.275       .  A
C1978      O1984   1.273       .  A
C1978      C3918   1.489       .  S
O1979      C1986   1.273       .  A
H1980      C1993   1.081       .  S
C1981      O1995   1.236       .  S
C1981      O1996   1.268       .  A
C1981      H2006   1.081       .  S
O1982      C2005   1.273       .  A
O1983     Mg1997   2.158       .  S
O1984     Mg2014   2.280       .  S
C1985      O1998   1.261       .  A
C1985      O1990   1.278       .  A
C1985      C3941   1.495       .  S
C1986      O2013   1.272       .  A
C1986      C2968   1.472       .  S
Mg1987     O1994   2.170       .  S
Mg1987     O1995   2.162       .  S
Mg1987     O1988   2.325       .  S
Mg1987     O1989   2.296       .  S
Mg1987     O2016   2.303       .  S
O1989      C1993   1.268       .  A
O1990     Mg1997   2.357       .  S
O1991      C2010   1.269       .  A
O1992      C2012   1.270       .  A
O1992     Mg2008   2.297       .  S
O1994     Mg2008   2.143       .  S
O1994      C2005   1.235       .  S
O1995     Mg2014   2.118       .  S
O1996     Mg2008   2.286       .  S
Mg1997     O2013   2.276       .  S
O1998     Mg2014   2.196       .  S
H1999      C2004   1.081       .  S
O2000     Mg2008   2.164       .  S
O2000      C2003   1.236       .  S
H2001      C2003   1.081       .  S
H2002      C2005   1.081       .  S
O2007     Mg2014   2.294       .  S
C2010      O2015   1.277       .  A
C2010      C2961   1.476       .  S
O2011      C2012   1.275       .  A
C2012      C2991   1.499       .  S
C2017      C2928   1.498       .  S
C2017      C2018   1.414   1_565  A
C2017      C2022   1.417       .  A
C2018      C2938   1.487       .  S
C2018      C2019   1.416       .  A
C2019      C2948   1.486       .  S
C2019      C2020   1.415   1_545  A
C2020      C2898   1.490       .  S
C2020      C2021   1.417       .  A
C2021      C2908   1.502       .  S
C2021      C2022   1.422       .  A
C2022      C2918   1.481       .  S
C2023      C4858   1.469       .  S
C2023      C2024   1.408       .  A
C2023      C2028   1.397       .  A
C2024      H2029   1.079       .  S
C2024      C2025   1.414       .  A
C2025      C2911   1.514       .  S
C2025      C2026   1.407       .  A
C2026      H2030   1.077       .  S
C2026      C2027   1.402       .  A
C2027      C2888   1.472       .  S
C2027      C2028   1.395       .  A
C2028      H2031   1.084       .  S
C2032      C4871   1.473       .  S
C2032      C2033   1.396       .  A
C2032      C2037   1.405       .  A
C2033      H2038   1.084       .  S
C2033      C2034   1.398       .  A
C2034      C2901   1.481       .  S
C2034      C2035   1.401       .  A
C2035      H2039   1.084       .  S
C2035      C2036   1.407       .  A
C2036      C2878   1.480       .  S
C2036      C2037   1.408       .  A
C2037      H2040   1.083       .  S
C2041      C3088   1.473       .  S
C2041      C2042   1.400       .  A
C2041      C2046   1.407       .  A
C2042      H2047   1.083       .  S
C2042      C2043   1.397       .  A
C2043      C2921   1.483       .  S
C2043      C2044   1.401       .  A
C2044      H2048   1.084       .  S
C2044      C2045   1.400       .  A
C2045      C2871   1.478       .  S
C2045      C2046   1.407       .  A
C2046      H2049   1.083       .  S
C2050      C3901   1.482       .  S
C2050      C2051   1.412       .  A
C2050      C2055   1.401       .  A
C2051      H2056   1.083       .  S
C2051      C2052   1.413       .  A
C2052      C2958   1.483       .  S
C2052      C2053   1.400       .  A
C2053      H2057   1.084       .  S
C2053      C2054   1.397       .  A
C2054      C2941   1.481       .  S
C2054      C2055   1.399       .  A
C2055      H2058   1.084       .  S
C2059      C3911   1.475       .  S
C2059      C2060   1.404       .  A
C2059      C2064   1.398       .  A
C2060      H2065   1.081       .  S
C2060      C2061   1.412       .  A
C2061      C2931   1.509       .  S
C2061      C2062   1.409       .  A
C2062      H2066   1.079       .  S
C2062      C2063   1.405       .  A
C2063      C3081   1.472       .  S
C2063      C2064   1.398       .  A
C2064      H2067   1.084       .  S
C2068      C2971   1.479       .  S
C2068      C2069   1.406       .  A
C2068      C2073   1.406       .  A
C2069      H2074   1.083       .  S
C2069      C2070   1.406       .  A
C2070      C2951   1.494       .  S
C2070      C2071   1.399       .  A
C2071      H2075   1.082       .  S
C2071      C2072   1.399       .  A
C2072      C2858   1.473       .  S
C2072      C2073   1.404       .  A
C2073      H2076   1.083       .  S
O2077     Mg2079   2.145       .  S
O2077     Mg2085   2.142       .  S
O2077      C2112   1.235       .  S
C2078      O2091   1.233       .  S
C2078      O2115   1.269       .  A
C2078      H2117   1.081       .  S
Mg2079     O2108   2.152   1_565  S
Mg2079     O2123   2.294       .  S
Mg2079     O2119   2.217   1_565  S
Mg2079     O2090   2.295       .  S
O2080     Mg2122   2.177       .  S
O2080     Mg2105   2.134       .  S
O2080      C2101   1.236       .  S
O2081      C2112   1.270       .  A
O2081     Mg2105   2.301       .  S
C2082      O2084   1.275       .  A
C2082      O2096   1.271       .  A
C2082      C4478   1.482       .  S
O2083      C2111   1.272   1_565  A
O2083     Mg2085   2.315       .  S
O2084     Mg2116   2.298       .  S
Mg2085     O2091   2.157       .  S
Mg2085     O2099   2.275       .  S
Mg2085     O2087   2.306       .  S
C2086      O2124   1.268       .  A
C2086      O2092   1.276       .  A
C2086      C4441   1.489       .  S
O2087      C2094   1.272       .  A
H2088      C2101   1.081       .  S
C2089      O2103   1.234   1_545  S
C2089      O2104   1.270       .  A
C2089      H2114   1.081       .  S
O2090      C2113   1.269       .  A
O2091     Mg2105   2.156       .  S
O2092     Mg2122   2.330       .  S
C2093      O2106   1.277       .  A
C2093      O2098   1.271       .  A
C2093      C2838   1.485       .  S
C2094      O2121   1.268       .  A
C2094      C2851   1.465       .  S
Mg2095     O2102   2.142       .  S
Mg2095     O2103   2.153       .  S
Mg2095     O2096   2.281   1_565  S
Mg2095     O2097   2.287       .  S
Mg2095     O2124   2.214       .  S
O2097      C2101   1.269       .  A
O2098     Mg2105   2.266       .  S
O2099      C2118   1.270       .  A
O2100      C2120   1.277       .  A
O2100     Mg2116   2.336       .  S
O2102     Mg2116   2.155   1_565  S
O2102      C2113   1.235       .  S
O2103     Mg2122   2.165       .  S
O2104     Mg2116   2.309       .  S
Mg2105     O2121   2.237       .  S
O2106     Mg2122   2.313       .  S
H2107      C2112   1.081       .  S
O2108     Mg2116   2.159       .  S
O2108      C2111   1.235       .  S
H2109      C2111   1.081       .  S
H2110      C2113   1.081       .  S
O2115     Mg2122   2.302       .  S
C2118      O2123   1.270       .  A
C2118      C2881   1.472       .  S
O2119      C2120   1.266       .  A
C2120      C2861   1.480       .  S
C2125      C2818   1.507       .  S
C2125      C2126   1.421       .  A
C2125      C2130   1.425       .  A
C2126      C2828   1.488       .  S
C2126      C2127   1.419       .  A
C2127      C2778   1.506       .  S
C2127      C2128   1.419       .  A
C2128      C2788   1.492       .  S
C2128      C2129   1.422       .  A
C2129      C2801   1.508       .  S
C2129      C2130   1.429       .  A
C2130      C2811   1.492       .  S
C2131      C2768   1.478       .  S
C2131      C2132   1.401       .  A
C2131      C2136   1.408       .  A
C2132      H2137   1.083       .  S
C2132      C2133   1.398       .  A
C2133      C3801   1.476       .  S
C2133      C2134   1.401       .  A
C2134      H2138   1.078       .  S
C2134      C2135   1.409       .  A
C2135      C2821   1.514       .  S
C2135      C2136   1.414       .  A
C2136      H2139   1.079       .  S
C2140      C3791   1.483       .  S
C2140      C2141   1.406       .  A
C2140      C2145   1.403       .  A
C2141      H2146   1.081       .  S
C2141      C2142   1.408       .  A
C2142      C2781   1.502       .  S
C2142      C2143   1.403       .  A
C2143      H2147   1.079       .  S
C2143      C2144   1.400       .  A
C2144      C2758   1.475       .  S
C2144      C2145   1.405       .  A
C2145      H2148   1.083       .  S
C2149      C3781   1.478       .  S
C2149      C2150   1.409       .  A
C2149      C2154   1.400       .  A
C2150      H2155   1.083       .  S
C2150      C2151   1.410       .  A
C2151      C2848   1.479       .  S
C2151      C2152   1.400       .  A
C2152      H2156   1.084       .  S
C2152      C2153   1.395       .  A
C2153      C2791   1.474       .  S
C2153      C2154   1.397       .  A
C2154      H2157   1.084       .  S
C2158      C2748   1.481       .  S
C2158      C2159   1.411       .  A
C2158      C2163   1.399       .  A
C2159      H2164   1.083       .  S
C2159      C2160   1.413       .  A
C2160      C3721   1.481       .  S
C2160      C2161   1.406       .  A
C2161      H2165   1.085       .  S
C2161      C2162   1.396       .  A
C2162      C2808   1.471       .  S
C2162      C2163   1.389       .  A
C2163      H2166   1.085       .  S
C2167      C3811   1.469       .  S
C2167      C2168   1.395       .  A
C2167      C2172   1.402       .  A
C2168      H2173   1.085       .  S
C2168      C2169   1.397       .  A
C2169      C2831   1.481       .  S
C2169      C2170   1.402       .  A
C2170      H2174   1.083       .  S
C2170      C2171   1.407       .  A
C2171      C2738   1.473       .  S
C2171      C2172   1.405       .  A
C2172      H2175   1.083       .  S
C2176      C3731   1.481       .  S
C2176      C2177   1.405       .  A
C2176      C2181   1.396       .  A
C2177      H2182   1.083       .  S
C2177      C2178   1.408       .  A
C2178      C2841   1.478       .  S
C2178      C2179   1.410       .  A
C2179      H2183   1.080       .  S
C2179      C2180   1.408       .  A
C2180      C2798   1.501       .  S
C2180      C2181   1.402       .  A
C2181      H2184   1.084       .  S
O2185     Mg2187   2.146       .  S
O2185     Mg2193   2.169       .  S
O2185      C2220   1.234       .  S
C2186      O2199   1.234       .  S
C2186      O2223   1.268       .  A
C2186      H2225   1.081       .  S
Mg2187     O2216   2.163       .  S
Mg2187     O2231   2.318       .  S
Mg2187     O2227   2.281       .  S
Mg2187     O2198   2.306       .  S
O2188     Mg2230   2.155       .  S
O2188     Mg2213   2.156       .  S
O2188      C2209   1.235       .  S
O2189      C2220   1.268       .  A
O2189     Mg2213   2.295       .  S
C2190      O2192   1.268       .  A
C2190      O2204   1.276       .  A
C2190      C2741   1.494       .  S
O2191      C2219   1.264       .  A
O2191     Mg2193   2.275       .  S
O2192     Mg2224   2.223       .  S
Mg2193     O2199   2.127       .  S
Mg2193     O2207   2.218       .  S
Mg2193     O2195   2.258       .  S
C2194      O2232   1.274       .  A
C2194      O2200   1.271       .  A
C2194      C2728   1.477       .  S
O2195      C2202   1.269       .  A
H2196      C2209   1.081       .  S
C2197      O2211   1.234       .  S
C2197      O2212   1.269       .  A
C2197      H2222   1.081       .  S
O2198      C2221   1.270       .  A
O2199     Mg2213   2.163       .  S
O2200     Mg2230   2.275       .  S
C2201      O2214   1.271       .  A
C2201      O2206   1.273       .  A
C2201      C2718   1.480       .  S
C2202      O2229   1.272       .  A
C2202      C2868   1.471       .  S
Mg2203     O2210   2.166       .  S
Mg2203     O2211   2.157       .  S
Mg2203     O2204   2.331       .  S
Mg2203     O2205   2.314       .  S
Mg2203     O2232   2.295       .  S
O2205      C2209   1.272       .  A
O2206     Mg2213   2.291       .  S
O2207      C2226   1.265       .  A
O2208      C2228   1.274       .  A
O2208     Mg2224   2.278       .  S
O2210     Mg2224   2.163       .  S
O2210      C2221   1.235       .  S
O2211     Mg2230   2.153       .  S
O2212     Mg2224   2.297       .  S
Mg2213     O2229   2.287       .  S
O2214     Mg2230   2.266       .  S
H2215      C2220   1.081       .  S
O2216     Mg2224   2.118       .  S
O2216      C2219   1.232       .  S
H2217      C2219   1.081       .  S
H2218      C2221   1.081       .  S
O2223     Mg2230   2.291       .  S
C2226      O2231   1.276       .  A
C2226      C2891   1.485       .  S
O2227      C2228   1.273       .  A
C2228      C2761   1.477       .  S
C2233      C2678   1.497       .  S
C2233      C2234   1.411       .  A
C2233      C2238   1.415       .  A
C2234      C2711   1.497       .  S
C2234      C2235   1.421       .  A
C2235      C2698   1.488       .  S
C2235      C2236   1.426   1_554  A
C2236      C2688   1.503       .  S
C2236      C2237   1.421       .  A
C2237      C2658   1.492       .  S
C2237      C2238   1.418   1_556  A
C2238      C2671   1.486       .  S
C2239      C2651   1.489       .  S
C2239      C2240   1.413       .  A
C2239      C2244   1.399       .  A
C2240      H2245   1.082       .  S
C2240      C2241   1.415       .  A
C2241      C3881   1.481       .  S
C2241      C2242   1.400       .  A
C2242      H2246   1.081   1_554  S
C2242      C2243   1.399       .  A
C2243      C2701   1.486       .  S
C2243      C2244   1.399       .  A
C2244      H2247   1.084       .  S
C2248      C4598   1.479       .  S
C2248      C2249   1.403       .  A
C2248      C2253   1.409       .  A
C2249      H2254   1.083       .  S
C2249      C2250   1.400       .  A
C2250      C2731   1.472       .  S
C2250      C2251   1.396       .  A
C2251      H2255   1.081       .  S
C2251      C2252   1.407       .  A
C2252      C2661   1.508       .  S
C2252      C2253   1.412       .  A
C2253      H2256   1.079       .  S
C2257      C3891   1.482       .  S
C2257      C2258   1.407       .  A
C2257      C2262   1.404       .  A
C2258      H2263   1.084       .  S
C2258      C2259   1.398       .  A
C2259      C2708   1.484       .  S
C2259      C2260   1.400       .  A
C2260      H2264   1.084       .  S
C2260      C2261   1.403       .  A
C2261      C2638   1.471       .  S
C2261      C2262   1.404       .  A
C2262      H2265   1.083       .  S
C2266      C2628   1.481       .  S
C2266      C2267   1.406       .  A
C2266      C2271   1.406       .  A
C2267      H2272   1.083       .  S
C2267      C2268   1.404       .  A
C2268      C2721   1.474       .  S
C2268      C2269   1.403       .  A
C2269      H2273   1.084       .  S
C2269      C2270   1.398       .  A
C2270      C2691   1.481       .  S
C2270      C2271   1.403       .  A
C2271      H2274   1.084       .  S
C2275      C2621   1.472       .  S
C2275      C2276   1.405       .  A
C2275      C2280   1.400       .  A
C2276      H2281   1.080       .  S
C2276      C2277   1.412       .  A
C2277      C2681   1.502       .  S
C2277      C2278   1.403       .  A
C2278      H2282   1.079       .  S
C2278      C2279   1.398       .  A
C2279      C2608   1.473       .  S
C2279      C2280   1.400       .  A
C2280      H2283   1.083       .  S
C2284      C4608   1.473       .  S
C2284      C2285   1.400       .  A
C2284      C2289   1.409       .  A
C2285      H2290   1.084       .  S
C2285      C2286   1.395       .  A
C2286      C2668   1.475       .  S
C2286      C2287   1.398       .  A
C2287      H2291   1.085       .  S
C2287      C2288   1.396       .  A
C2288      C2601   1.476       .  S
C2288      C2289   1.407       .  A
C2289      H2292   1.083       .  S
O2293     Mg2295   2.143       .  S
O2293     Mg2301   2.179       .  S
O2293      C2328   1.234       .  S
C2294      O2307   1.234       .  S
C2294      O2331   1.269   1_554  A
C2294      H2333   1.081       .  S
Mg2295     O2324   2.163       .  S
Mg2295     O2339   2.277       .  S
Mg2295     O2335   2.254       .  S
Mg2295     O2306   2.295       .  S
O2296     Mg2338   2.159   1_554  S
O2296     Mg2321   2.120       .  S
O2296      C2317   1.232       .  S
O2297      C2328   1.267       .  A
O2297     Mg2321   2.286       .  S
C2298      O2300   1.275       .  A
C2298      O2312   1.266       .  A
C2298      C2751   1.485       .  S
O2299      C2327   1.269       .  A
O2299     Mg2301   2.303       .  S
O2300     Mg2332   2.309       .  S
Mg2301     O2307   2.158       .  S
Mg2301     O2315   2.290       .  S
Mg2301     O2303   2.334       .  S
C2302      O2340   1.271       .  A
C2302      O2308   1.274       .  A
C2302      C2771   1.483       .  S
O2303      C2310   1.276       .  A
H2304      C2317   1.081       .  S
C2305      O2319   1.235       .  S
C2305      O2320   1.269       .  A
C2305      H2330   1.081       .  S
O2306      C2329   1.268       .  A
O2307     Mg2321   2.162       .  S
O2308     Mg2338   2.299       .  S
C2309      O2322   1.273       .  A
C2309      O2314   1.271   1_556  A
C2309      C2598   1.476   1_556  S
C2310      O2337   1.267       .  A
C2310      C2618   1.494       .  S
Mg2311     O2318   2.148       .  S
Mg2311     O2319   2.169       .  S
Mg2311     O2312   2.237       .  S
Mg2311     O2313   2.282       .  S
Mg2311     O2340   2.263       .  S
O2313      C2317   1.265   1_556  A
O2314     Mg2321   2.270       .  S
O2315      C2334   1.275       .  A
O2316      C2336   1.277   1_556  A
O2316     Mg2332   2.320       .  S
O2318     Mg2332   2.179       .  S
O2318      C2329   1.234   1_556  S
O2319     Mg2338   2.150       .  S
O2320     Mg2332   2.300       .  S
Mg2321     O2337   2.209       .  S
O2322     Mg2338   2.285       .  S
H2323      C2328   1.081       .  S
O2324     Mg2332   2.162   1_554  S
O2324      C2327   1.234       .  S
H2325      C2327   1.081   1_556  S
H2326      C2329   1.081       .  S
O2331     Mg2338   2.300       .  S
C2334      O2339   1.273       .  A
C2334      C4461   1.478       .  S
O2335      C2336   1.271       .  A
C2336      C4421   1.479       .  S
O2341     Mg2343   2.160   1_554  S
O2341     Mg2349   2.170       .  S
O2341      C2376   1.235       .  S
C2342      O2355   1.235       .  S
C2342      O2379   1.269       .  A
C2342      H2381   1.081       .  S
Mg2343     O2372   2.155       .  S
Mg2343     O2387   2.311       .  S
Mg2343     O2383   2.299       .  S
Mg2343     O2354   2.307   1_556  S
O2344     Mg2386   2.162   1_455  S
O2344     Mg2369   2.166       .  S
O2344      C2365   1.234       .  S
O2345      C2376   1.270       .  A
O2345     Mg2369   2.304       .  S
C2346      O2348   1.269       .  A
C2346      O2360   1.277       .  A
C2346      C4681   1.500       .  S
O2347      C2375   1.267       .  A
O2347     Mg2349   2.291   1_556  S
O2348     Mg2380   2.229   1_654  S
Mg2349     O2355   2.146       .  S
Mg2349     O2363   2.256   1_554  S
Mg2349     O2351   2.255       .  S
C2350      O2388   1.275       .  A
C2350      O2356   1.273       .  A
C2350      C2578   1.480       .  S
O2351      C2358   1.269       .  A
H2352      C2365   1.081       .  S
C2353      O2367   1.234       .  S
C2353      O2368   1.268       .  A
C2353      H2378   1.081       .  S
O2354      C2377   1.270       .  A
O2355     Mg2369   2.177       .  S
O2356     Mg2386   2.282       .  S
C2357      O2370   1.271       .  A
C2357      O2362   1.277       .  A
C2357      C2591   1.484       .  S
C2358      O2385   1.275       .  A
C2358      C2648   1.485       .  S
Mg2359     O2366   2.155   1_655  S
Mg2359     O2367   2.173       .  S
Mg2359     O2360   2.343       .  S
Mg2359     O2361   2.305   1_655  S
Mg2359     O2388   2.287       .  S
O2361      C2365   1.270       .  A
O2362     Mg2369   2.320       .  S
O2363      C2382   1.270       .  A
O2364      C2384   1.270       .  A
O2364     Mg2380   2.269       .  S
O2366     Mg2380   2.156   1_554  S
O2366      C2377   1.235       .  S
O2367     Mg2386   2.146       .  S
O2368     Mg2380   2.288   1_654  S
Mg2369     O2385   2.315       .  S
O2370     Mg2386   2.252   1_455  S
H2371      C2376   1.081       .  S
O2372     Mg2380   2.137       .  S
O2372      C2375   1.233       .  S
H2373      C2375   1.081       .  S
H2374      C2377   1.081       .  S
O2379     Mg2386   2.294   1_455  S
C2382      O2387   1.275       .  A
C2382      C2631   1.479       .  S
O2383      C2384   1.274       .  A
C2384      C4701   1.481       .  S
C2389      C2568   1.488       .  S
C2389      C2390   1.425       .  A
C2389      C2394   1.413       .  A
C2390      C2561   1.493       .  S
C2390      C2391   1.423       .  A
C2391      C2548   1.498       .  S
C2391      C2392   1.420       .  A
C2392      C2538   1.491   1_455  S
C2392      C2393   1.413       .  A
C2393      C2528   1.484   1_455  S
C2393      C2394   1.409       .  A
C2394      C2521   1.492       .  S
C2395      C4641   1.484       .  S
C2395      C2396   1.407       .  A
C2395      C2400   1.408       .  A
C2396      H2401   1.083       .  S
C2396      C2397   1.405       .  A
C2397      C3631   1.470   1_455  S
C2397      C2398   1.396       .  A
C2398      H2402   1.084       .  S
C2398      C2399   1.397       .  A
C2399      C2518   1.488       .  S
C2399      C2400   1.406       .  A
C2400      H2403   1.083       .  S
C2404      C2588   1.482       .  S
C2404      C2405   1.408       .  A
C2404      C2409   1.410       .  A
C2405      H2410   1.083       .  S
C2405      C2406   1.404       .  A
C2406      C5288   1.482   1_455  S
C2406      C2407   1.401       .  A
C2407      H2411   1.084       .  S
C2407      C2408   1.405       .  A
C2408      C2551   1.490       .  S
C2408      C2409   1.404       .  A
C2409      H2412   1.084       .  S
C2413      C4651   1.473       .  S
C2413      C2414   1.406       .  A
C2413      C2418   1.398       .  A
C2414      H2419   1.083       .  S
C2414      C2415   1.407       .  A
C2415      C3478   1.475       .  S
C2415      C2416   1.399       .  A
C2416      H2420   1.079       .  S
C2416      C2417   1.403       .  A
C2417      C2531   1.493       .  S
C2417      C2418   1.404       .  A
C2418      H2421   1.081       .  S
C2422      C5281   1.477       .  S
C2422      C2423   1.408       .  A
C2422      C2427   1.408       .  A
C2423      H2428   1.082       .  S
C2423      C2424   1.404       .  A
C2424      C2558   1.494       .  S
C2424      C2425   1.400       .  A
C2425      H2429   1.079       .  S
C2425      C2426   1.396       .  A
C2426      C2508   1.481       .  S
C2426      C2427   1.407       .  A
C2427      H2430   1.083       .  S
C2431      C2581   1.475       .  S
C2431      C2432   1.405       .  A
C2431      C2436   1.400       .  A
C2432      H2437   1.083       .  S
C2432      C2433   1.405       .  A
C2433      C3491   1.483       .  S
C2433      C2434   1.407       .  A
C2434      H2438   1.083       .  S
C2434      C2435   1.408       .  A
C2435      C2541   1.495       .  S
C2435      C2436   1.401       .  A
C2436      H2439   1.082       .  S
C2440      C3621   1.476       .  S
C2440      C2441   1.407       .  A
C2440      C2445   1.406       .  A
C2441      H2446   1.083       .  S
C2441      C2442   1.400       .  A
C2442      C2571   1.487       .  S
C2442      C2443   1.400       .  A
C2443      H2447   1.085       .  S
C2443      C2444   1.403       .  A
C2444      C2498   1.482       .  S
C2444      C2445   1.405       .  A
C2445      H2448   1.083       .  S
O2449     Mg2451   2.151       .  S
O2449     Mg2457   2.142       .  S
O2449      C2484   1.235       .  S
C2450      O2463   1.236       .  S
C2450      O2487   1.270       .  A
C2450      H2489   1.081       .  S
Mg2451     O2480   2.159       .  S
Mg2451     O2495   2.303       .  S
Mg2451     O2491   2.270       .  S
Mg2451     O2462   2.298       .  S
O2452     Mg2494   2.149       .  S
O2452     Mg2477   2.144       .  S
O2452      C2473   1.233       .  S
O2453      C2484   1.270       .  A
O2453     Mg2477   2.304       .  S
C2454      O2456   1.270       .  A
C2454      O2468   1.273       .  A
C2454      C4181   1.467       .  S
O2455      C2483   1.270       .  A
O2455     Mg2457   2.301       .  S
O2456     Mg2488   2.246       .  S
Mg2457     O2463   2.143       .  S
Mg2457     O2471   2.239       .  S
Mg2457     O2459   2.297       .  S
C2458      O2496   1.272       .  A
C2458      O2464   1.274       .  A
C2458      C2501   1.466       .  S
O2459      C2466   1.272       .  A
H2460      C2473   1.081       .  S
C2461      O2475   1.235       .  S
C2461      O2476   1.269       .  A
C2461      H2486   1.081       .  S
O2462      C2485   1.269       .  A
O2463     Mg2477   2.152       .  S
O2464     Mg2494   2.294       .  S
C2465      O2478   1.272       .  A
C2465      O2470   1.271       .  A
C2465      C2511   1.468       .  S
C2466      O2493   1.269       .  A
C2466      C2641   1.466       .  S
Mg2467     O2474   2.153       .  S
Mg2467     O2475   2.171       .  S
Mg2467     O2468   2.305       .  S
Mg2467     O2469   2.296       .  S
Mg2467     O2496   2.271       .  S
O2469      C2473   1.268       .  A
O2470     Mg2477   2.295       .  S
O2471      C2490   1.269       .  A
O2472      C2492   1.274       .  A
O2472     Mg2488   2.298       .  S
O2474     Mg2488   2.164       .  S
O2474      C2485   1.234       .  S
O2475     Mg2494   2.155       .  S
O2476     Mg2488   2.297       .  S
Mg2477     O2493   2.258       .  S
O2478     Mg2494   2.271       .  S
H2479      C2484   1.081       .  S
O2480     Mg2488   2.138       .  S
O2480      C2483   1.236       .  S
H2481      C2483   1.081       .  S
H2482      C2485   1.081       .  S
O2487     Mg2494   2.301       .  S
C2490      O2495   1.271       .  A
C2490      C2611   1.464       .  S
O2491      C2492   1.271       .  A
C2492      C4201   1.482       .  S
C2497      H2504   1.084       .  S
C2497      C2498   1.404       .  A
C2497      C2502   1.391       .  A
C2498      C2499   1.411       .  A
C2499      C2500   1.406       .  A
C2499     Br2506   1.916       .  S
C2500      H2505   1.083       .  S
C2500      C2501   1.403       .  A
C2501      C2502   1.405       .  A
C2502     Br2503   1.922       .  S
C2507      H2514   1.083       .  S
C2507      C2508   1.401       .  A
C2507      C2512   1.397       .  A
C2508      C2509   1.416       .  A
C2509      C2510   1.402       .  A
C2509     Br2516   1.921       .  S
C2510      H2515   1.083       .  S
C2510      C2511   1.399       .  A
C2511      C2512   1.408       .  A
C2512     Br2513   1.920       .  S
C2517      H2524   1.083       .  S
C2517      C2518   1.411   1_655  A
C2517      C2522   1.399   1_655  A
C2518      C2519   1.411       .  A
C2519      C2520   1.394       .  A
C2519     Br2526   1.923       .  S
C2520      H2525   1.072       .  S
C2520      C2521   1.400       .  A
C2521      C2522   1.405       .  A
C2522     Br2523   1.918   1_455  S
C2527      H2534   1.075       .  S
C2527      C2528   1.395       .  A
C2527      C2532   1.390       .  A
C2528      C2529   1.403       .  A
C2529      C2530   1.393       .  A
C2529     Br2536   1.919   1_655  S
C2530      H2535   1.079       .  S
C2530      C2531   1.413       .  A
C2531      C2532   1.418       .  A
C2532     Br2533   1.927       .  S
C2537      H2544   1.083   1_655  S
C2537      C2538   1.399       .  A
C2537      C2542   1.397       .  A
C2538      C2539   1.414       .  A
C2539      C2540   1.396       .  A
C2539     Br2546   1.927       .  S
C2540      H2545   1.082       .  S
C2540      C2541   1.408       .  A
C2541      C2542   1.418       .  A
C2542     Br2543   1.921       .  S
C2547      H2554   1.056   1_455  S
C2547      C2548   1.394       .  A
C2547      C2552   1.386   1_455  A
C2548      C2549   1.412       .  A
C2549      C2550   1.411       .  A
C2549     Br2556   1.916       .  S
C2550      H2555   1.081       .  S
C2550      C2551   1.411       .  A
C2551      C2552   1.407   1_455  A
C2552     Br2553   1.915       .  S
C2557      H2564   1.080       .  S
C2557      C2558   1.411       .  A
C2557      C2562   1.401       .  A
C2558      C2559   1.413       .  A
C2559      C2560   1.387       .  A
C2559     Br2566   1.928       .  S
C2560      H2565   1.073       .  S
C2560      C2561   1.398       .  A
C2561      C2562   1.410       .  A
C2562     Br2563   1.916       .  S
C2567      H2574   1.083       .  S
C2567      C2568   1.404       .  A
C2567      C2572   1.402       .  A
C2568      C2569   1.411       .  A
C2569      C2570   1.392       .  A
C2569     Br2576   1.925       .  S
C2570      H2575   1.083       .  S
C2570      C2571   1.406       .  A
C2571      C2572   1.412       .  A
C2572     Br2573   1.918       .  S
C2577      H2584   1.083       .  S
C2577      C2578   1.403       .  A
C2577      C2582   1.401       .  A
C2578      C2579   1.416       .  A
C2579      C2580   1.397       .  A
C2579     Br2586   1.922       .  S
C2580      H2585   1.084       .  S
C2580      C2581   1.397       .  A
C2581      C2582   1.410       .  A
C2582     Br2583   1.918       .  S
C2587      H2594   1.083       .  S
C2587      C2588   1.403   1_655  A
C2587      C2592   1.402   1_655  A
C2588      C2589   1.409       .  A
C2589      C2590   1.400       .  A
C2589     Br2596   1.920       .  S
C2590      H2595   1.083       .  S
C2590      C2591   1.407       .  A
C2591      C2592   1.413       .  A
C2592     Br2593   1.919   1_455  S
C2597      H2604   1.083       .  S
C2597      C2598   1.401   1_556  A
C2597      C2602   1.401       .  A
C2598      C2599   1.416       .  A
C2599      C2600   1.396       .  A
C2599     Br2606   1.922       .  S
C2600      H2605   1.084       .  S
C2600      C2601   1.397       .  A
C2601      C2602   1.414   1_554  A
C2602     Br2603   1.920       .  S
C2607      H2614   1.084       .  S
C2607      C2608   1.400       .  A
C2607      C2612   1.392       .  A
C2608      C2609   1.411       .  A
C2609      C2610   1.402       .  A
C2609     Br2616   1.918       .  S
C2610      H2615   1.083       .  S
C2610      C2611   1.401       .  A
C2611      C2612   1.407       .  A
C2612     Br2613   1.922       .  S
C2617      H2624   1.083       .  S
C2617      C2618   1.411       .  A
C2617      C2622   1.389       .  A
C2618      C2619   1.419       .  A
C2619      C2620   1.408       .  A
C2619     Br2626   1.920       .  S
C2620      H2625   1.083       .  S
C2620      C2621   1.402       .  A
C2621      C2622   1.402       .  A
C2622     Br2623   1.924       .  S
C2627      H2634   1.084       .  S
C2627      C2628   1.401       .  A
C2627      C2632   1.398       .  A
C2628      C2629   1.410       .  A
C2629      C2630   1.403       .  A
C2629     Br2636   1.918       .  S
C2630      H2635   1.083       .  S
C2630      C2631   1.405       .  A
C2631      C2632   1.414       .  A
C2632     Br2633   1.922       .  S
C2637      H2644   1.083       .  S
C2637      C2638   1.402       .  A
C2637      C2642   1.401       .  A
C2638      C2639   1.408       .  A
C2639      C2640   1.396       .  A
C2639     Br2646   1.921       .  S
C2640      H2645   1.084       .  S
C2640      C2641   1.401       .  A
C2641      C2642   1.406       .  A
C2642     Br2643   1.916       .  S
C2647      H2654   1.083       .  S
C2647      C2648   1.411       .  A
C2647      C2652   1.411       .  A
C2648      C2649   1.412       .  A
C2649      C2650   1.390       .  A
C2649     Br2656   1.927       .  S
C2650      H2655   1.084       .  S
C2650      C2651   1.405       .  A
C2651      C2652   1.409       .  A
C2652     Br2653   1.915       .  S
C2657      H2664   1.084   1_556  S
C2657      C2658   1.403       .  A
C2657      C2662   1.402       .  A
C2658      C2659   1.403       .  A
C2659      C2660   1.392       .  A
C2659     Br2666   1.920       .  S
C2660      H2665   1.079       .  S
C2660      C2661   1.415       .  A
C2661      C2662   1.421       .  A
C2662     Br2663   1.921       .  S
C2667      H2674   1.084       .  S
C2667      C2668   1.401   1_556  A
C2667      C2672   1.387       .  A
C2668      C2669   1.410       .  A
C2669      C2670   1.396       .  A
C2669     Br2676   1.920       .  S
C2670      H2675   1.083       .  S
C2670      C2671   1.405       .  A
C2671      C2672   1.410   1_554  A
C2672     Br2673   1.911       .  S
C2677      H2684   1.080       .  S
C2677      C2678   1.400       .  A
C2677      C2682   1.393       .  A
C2678      C2679   1.405       .  A
C2679      C2680   1.398       .  A
C2679     Br2686   1.911       .  S
C2680      H2685   1.079       .  S
C2680      C2681   1.411       .  A
C2681      C2682   1.421       .  A
C2682     Br2683   1.928       .  S
C2687      H2694   1.081       .  S
C2687      C2688   1.407       .  A
C2687      C2692   1.395       .  A
C2688      C2689   1.414       .  A
C2689      C2690   1.402       .  A
C2689     Br2696   1.920       .  S
C2690      H2695   1.083       .  S
C2690      C2691   1.405       .  A
C2691      C2692   1.406       .  A
C2692     Br2693   1.920       .  S
C2697      H2704   1.082       .  S
C2697      C2698   1.406       .  A
C2697      C2702   1.394       .  A
C2698      C2699   1.409       .  A
C2699      C2700   1.389       .  A
C2699     Br2706   1.921       .  S
C2700      H2705   1.082       .  S
C2700      C2701   1.408       .  A
C2701      C2702   1.413       .  A
C2702     Br2703   1.922       .  S
C2707      H2714   1.083       .  S
C2707      C2708   1.404       .  A
C2707      C2712   1.396       .  A
C2708      C2709   1.411       .  A
C2709      C2710   1.399       .  A
C2709     Br2716   1.919       .  S
C2710      H2715   1.083       .  S
C2710      C2711   1.405       .  A
C2711      C2712   1.410       .  A
C2712     Br2713   1.914       .  S
C2717      H2724   1.083       .  S
C2717      C2718   1.407       .  A
C2717      C2722   1.396       .  A
C2718      C2719   1.411       .  A
C2719      C2720   1.402       .  A
C2719     Br2726   1.917       .  S
C2720      H2725   1.083       .  S
C2720      C2721   1.403       .  A
C2721      C2722   1.405       .  A
C2722     Br2723   1.920       .  S
C2727      H2734   1.083       .  S
C2727      C2728   1.401       .  A
C2727      C2732   1.402       .  A
C2728      C2729   1.415       .  A
C2729      C2730   1.396       .  A
C2729     Br2736   1.920       .  S
C2730      H2735   1.083       .  S
C2730      C2731   1.396       .  A
C2731      C2732   1.411       .  A
C2732     Br2733   1.919       .  S
C2737      H2744   1.084       .  S
C2737      C2738   1.401       .  A
C2737      C2742   1.404       .  A
C2738      C2739   1.402       .  A
C2739      C2740   1.393       .  A
C2739     Br2746   1.921       .  S
C2740      H2745   1.083       .  S
C2740      C2741   1.412       .  A
C2741      C2742   1.420       .  A
C2742     Br2743   1.921       .  S
C2747      H2754   1.084       .  S
C2747      C2748   1.402       .  A
C2747      C2752   1.388       .  A
C2748      C2749   1.408       .  A
C2749      C2750   1.407       .  A
C2749     Br2756   1.916       .  S
C2750      H2755   1.083       .  S
C2750      C2751   1.410       .  A
C2751      C2752   1.417       .  A
C2752     Br2753   1.928       .  S
C2757      H2764   1.083       .  S
C2757      C2758   1.407       .  A
C2757      C2762   1.405       .  A
C2758      C2759   1.406       .  A
C2759      C2760   1.391       .  A
C2759     Br2766   1.922       .  S
C2760      H2765   1.084       .  S
C2760      C2761   1.404       .  A
C2761      C2762   1.409       .  A
C2762     Br2763   1.917       .  S
C2767      H2774   1.083       .  S
C2767      C2768   1.403       .  A
C2767      C2772   1.401       .  A
C2768      C2769   1.405       .  A
C2769      C2770   1.399       .  A
C2769     Br2776   1.919       .  S
C2770      H2775   1.083       .  S
C2770      C2771   1.408       .  A
C2771      C2772   1.411       .  A
C2772     Br2773   1.919       .  S
C2777      H2784   1.081       .  S
C2777      C2778   1.405       .  A
C2777      C2782   1.397       .  A
C2778      C2779   1.410       .  A
C2779      C2780   1.394       .  A
C2779     Br2786   1.913       .  S
C2780      H2785   1.080       .  S
C2780      C2781   1.410       .  A
C2781      C2782   1.419       .  A
C2782     Br2783   1.925       .  S
C2787      H2794   1.083       .  S
C2787      C2788   1.405       .  A
C2787      C2792   1.393       .  A
C2788      C2789   1.413       .  A
C2789      C2790   1.391       .  A
C2789     Br2796   1.916       .  S
C2790      H2795   1.083       .  S
C2790      C2791   1.401       .  A
C2791      C2792   1.410       .  A
C2792     Br2793   1.921       .  S
C2797      H2804   1.082       .  S
C2797      C2798   1.411       .  A
C2797      C2802   1.391       .  A
C2798      C2799   1.415       .  A
C2799      C2800   1.403       .  A
C2799     Br2806   1.920       .  S
C2800      H2805   1.082       .  S
C2800      C2801   1.410       .  A
C2801      C2802   1.411       .  A
C2802     Br2803   1.918       .  S
C2807      H2814   1.083       .  S
C2807      C2808   1.402       .  A
C2807      C2812   1.397       .  A
C2808      C2809   1.406       .  A
C2809      C2810   1.390       .  A
C2809     Br2816   1.921       .  S
C2810      H2815   1.083       .  S
C2810      C2811   1.406       .  A
C2811      C2812   1.415       .  A
C2812     Br2813   1.922       .  S
C2817      H2824   1.080       .  S
C2817      C2818   1.404       .  A
C2817      C2822   1.395       .  A
C2818      C2819   1.409       .  A
C2819      C2820   1.403       .  A
C2819     Br2826   1.918       .  S
C2820      H2825   1.078       .  S
C2820      C2821   1.416       .  A
C2821      C2822   1.422       .  A
C2822     Br2823   1.928       .  S
C2827      H2834   1.083       .  S
C2827      C2828   1.405       .  A
C2827      C2832   1.400       .  A
C2828      C2829   1.405       .  A
C2829      C2830   1.389       .  A
C2829     Br2836   1.916       .  S
C2830      H2835   1.083       .  S
C2830      C2831   1.405       .  A
C2831      C2832   1.412       .  A
C2832     Br2833   1.918       .  S
C2837      H2844   1.083       .  S
C2837      C2838   1.408       .  A
C2837      C2842   1.407       .  A
C2838      C2839   1.415       .  A
C2839      C2840   1.395       .  A
C2839     Br2846   1.922       .  S
C2840      H2845   1.084       .  S
C2840      C2841   1.399       .  A
C2841      C2842   1.408       .  A
C2842     Br2843   1.916       .  S
C2847      H2854   1.084       .  S
C2847      C2848   1.410       .  A
C2847      C2852   1.400       .  A
C2848      C2849   1.408       .  A
C2849      C2850   1.396       .  A
C2849     Br2856   1.920       .  S
C2850      H2855   1.083       .  S
C2850      C2851   1.402       .  A
C2851      C2852   1.402       .  A
C2852     Br2853   1.917       .  S
C2857      H2864   1.084       .  S
C2857      C2858   1.397       .  A
C2857      C2862   1.393       .  A
C2858      C2859   1.409       .  A
C2859      C2860   1.405       .  A
C2859     Br2866   1.917       .  S
C2860      H2865   1.083       .  S
C2860      C2861   1.405       .  A
C2861      C2862   1.417       .  A
C2862     Br2863   1.924       .  S
C2867      H2874   1.083       .  S
C2867      C2868   1.399       .  A
C2867      C2872   1.401       .  A
C2868      C2869   1.413       .  A
C2869      C2870   1.396       .  A
C2869     Br2876   1.922       .  S
C2870      H2875   1.083       .  S
C2870      C2871   1.398       .  A
C2871      C2872   1.415       .  A
C2872     Br2873   1.920       .  S
C2877      H2884   1.084       .  S
C2877      C2878   1.403       .  A
C2877      C2882   1.397       .  A
C2878      C2879   1.410       .  A
C2879      C2880   1.403       .  A
C2879     Br2886   1.918   1_565  S
C2880      H2885   1.083   1_565  S
C2880      C2881   1.403       .  A
C2881      C2882   1.409       .  A
C2882     Br2883   1.922       .  S
C2887      H2894   1.085       .  S
C2887      C2888   1.395       .  A
C2887      C2892   1.387       .  A
C2888      C2889   1.404       .  A
C2889      C2890   1.405       .  A
C2889     Br2896   1.916       .  S
C2890      H2895   1.083       .  S
C2890      C2891   1.412       .  A
C2891      C2892   1.420       .  A
C2892     Br2893   1.925       .  S
C2897      H2904   1.077       .  S
C2897      C2898   1.400   1_545  A
C2897      C2902   1.390       .  A
C2898      C2899   1.409       .  A
C2899      C2900   1.401       .  A
C2899     Br2906   1.918       .  S
C2900      H2905   1.083       .  S
C2900      C2901   1.407       .  A
C2901      C2902   1.410   1_565  A
C2902     Br2903   1.923       .  S
C2907      H2914   1.079       .  S
C2907      C2908   1.399       .  A
C2907      C2912   1.395       .  A
C2908      C2909   1.408       .  A
C2909      C2910   1.402       .  A
C2909     Br2916   1.918       .  S
C2910      H2915   1.078       .  S
C2910      C2911   1.415       .  A
C2911      C2912   1.424       .  A
C2912     Br2913   1.928       .  S
C2917      H2924   1.083       .  S
C2917      C2918   1.400       .  A
C2917      C2922   1.396       .  A
C2918      C2919   1.406       .  A
C2919      C2920   1.388       .  A
C2919     Br2926   1.913       .  S
C2920      H2925   1.082       .  S
C2920      C2921   1.405       .  A
C2921      C2922   1.415       .  A
C2922     Br2923   1.919       .  S
C2927      H2934   1.083       .  S
C2927      C2928   1.400       .  A
C2927      C2932   1.401       .  A
C2928      C2929   1.409       .  A
C2929      C2930   1.398       .  A
C2929     Br2936   1.920       .  S
C2930      H2935   1.080       .  S
C2930      C2931   1.413       .  A
C2931      C2932   1.423       .  A
C2932     Br2933   1.923   1_565  S
C2937      H2944   1.081       .  S
C2937      C2938   1.401       .  A
C2937      C2942   1.390       .  A
C2938      C2939   1.408       .  A
C2939      C2940   1.396       .  A
C2939     Br2946   1.917       .  S
C2940      H2945   1.083       .  S
C2940      C2941   1.407       .  A
C2941      C2942   1.410       .  A
C2942     Br2943   1.920       .  S
C2947      H2954   1.084       .  S
C2947      C2948   1.398       .  A
C2947      C2952   1.395       .  A
C2948      C2949   1.406       .  A
C2949      C2950   1.396       .  A
C2949     Br2956   1.917       .  S
C2950      H2955   1.082       .  S
C2950      C2951   1.409       .  A
C2951      C2952   1.419       .  A
C2952     Br2953   1.924       .  S
C2957      H2964   1.083       .  S
C2957      C2958   1.410       .  A
C2957      C2962   1.404       .  A
C2958      C2959   1.406       .  A
C2959      C2960   1.399       .  A
C2959     Br2966   1.919       .  S
C2960      H2965   1.084       .  S
C2960      C2961   1.405       .  A
C2961      C2962   1.405       .  A
C2962     Br2963   1.917       .  S
C2967      H2974   1.083       .  S
C2967      C2968   1.405       .  A
C2967      C2972   1.405       .  A
C2968      C2969   1.408       .  A
C2969      C2970   1.396       .  A
C2969     Br2976   1.922       .  S
C2970      H2975   1.084       .  S
C2970      C2971   1.403       .  A
C2971      C2972   1.408       .  A
C2972     Br2973   1.916       .  S
C2977      H2984   1.083       .  S
C2977      C2978   1.408       .  A
C2977      C2982   1.408       .  A
C2978      C2979   1.406       .  A
C2979      C2980   1.391       .  A
C2979     Br2986   1.923       .  S
C2980      H2985   1.084       .  S
C2980      C2981   1.402       .  A
C2981      C2982   1.408       .  A
C2982     Br2983   1.916       .  S
C2987      H2994   1.084       .  S
C2987      C2988   1.399       .  A
C2987      C2992   1.390       .  A
C2988      C2989   1.415       .  A
C2989      C2990   1.412       .  A
C2989     Br2996   1.918       .  S
C2990      H2995   1.083       .  S
C2990      C2991   1.411       .  A
C2991      C2992   1.418       .  A
C2992     Br2993   1.914       .  S
C2997      H3004   1.083   1_655  S
C2997      C2998   1.402       .  A
C2997      C3002   1.402       .  A
C2998      C2999   1.412       .  A
C2999      C3000   1.401       .  A
C2999     Br3006   1.920       .  S
C3000      H3005   1.083       .  S
C3000      C3001   1.406       .  A
C3001      C3002   1.415       .  A
C3002     Br3003   1.920       .  S
C3007      H3014   1.078       .  S
C3007      C3008   1.403       .  A
C3007      C3012   1.400       .  A
C3008      C3009   1.401       .  A
C3009      C3010   1.396       .  A
C3009     Br3016   1.916       .  S
C3010      H3015   1.082       .  S
C3010      C3011   1.413       .  A
C3011      C3012   1.416       .  A
C3012     Br3013   1.921   1_455  S
C3017      H3024   1.077       .  S
C3017      C3018   1.398       .  A
C3017      C3022   1.396       .  A
C3018      C3019   1.403       .  A
C3019      C3020   1.397       .  A
C3019     Br3026   1.918   1_655  S
C3020      H3025   1.078       .  S
C3020      C3021   1.415       .  A
C3021      C3022   1.422       .  A
C3022     Br3023   1.926       .  S
C3027      H3034   1.080       .  S
C3027      C3028   1.409       .  A
C3027      C3032   1.393       .  A
C3028      C3029   1.425       .  A
C3029      C3030   1.395       .  A
C3029     Br3036   1.923       .  S
C3030      H3035   1.082       .  S
C3030      C3031   1.397       .  A
C3031      C3032   1.405       .  A
C3032     Br3033   1.907       .  S
C3037      H3044   1.073       .  S
C3037      C3038   1.393       .  A
C3037      C3042   1.388       .  A
C3038      C3039   1.404   1_455  A
C3039      C3040   1.400       .  A
C3039     Br3046   1.917       .  S
C3040      H3045   1.082       .  S
C3040      C3041   1.411   1_655  A
C3041      C3042   1.414       .  A
C3042     Br3043   1.927       .  S
C3047      H3054   1.083       .  S
C3047      C3048   1.406       .  A
C3047      C3052   1.404       .  A
C3048      C3049   1.417       .  A
C3049      C3050   1.398       .  A
C3049     Br3056   1.918       .  S
C3050      H3055   1.083       .  S
C3050      C3051   1.404       .  A
C3051      C3052   1.415       .  A
C3052     Br3053   1.919       .  S
C3057      H3064   1.083       .  S
C3057      C3058   1.414       .  A
C3057      C3062   1.412       .  A
C3058      C3059   1.421       .  A
C3059      C3060   1.387       .  A
C3059     Br3066   1.915       .  S
C3060      H3065   1.085       .  S
C3060      C3061   1.395       .  A
C3061      C3062   1.408       .  A
C3062     Br3063   1.915       .  S
C3067      H3074   1.083       .  S
C3067      C3068   1.408       .  A
C3067      C3072   1.404       .  A
C3068      C3069   1.402       .  A
C3069      C3070   1.394       .  A
C3069     Br3076   1.918   1_455  S
C3070      H3075   1.084   1_455  S
C3070      C3071   1.405       .  A
C3071      C3072   1.405       .  A
C3072     Br3073   1.916       .  S
C3077      H3084   1.084       .  S
C3077      C3078   1.402   1_545  A
C3077      C3082   1.396       .  A
C3078      C3079   1.409       .  A
C3079      C3080   1.402       .  A
C3079     Br3086   1.914       .  S
C3080      H3085   1.083       .  S
C3080      C3081   1.402       .  A
C3081      C3082   1.407   1_565  A
C3082     Br3083   1.921       .  S
C3087      H3094   1.084       .  S
C3087      C3088   1.397       .  A
C3087      C3092   1.394       .  A
C3088      C3089   1.412       .  A
C3089      C3090   1.401       .  A
C3089     Br3096   1.917       .  S
C3090      H3095   1.083       .  S
C3090      C3091   1.399       .  A
C3091      C3092   1.410       .  A
C3092     Br3093   1.916       .  S
C3097      H3104   1.084       .  S
C3097      C3098   1.402       .  A
C3097      C3102   1.391       .  A
C3098      C3099   1.409       .  A
C3099      C3100   1.407       .  A
C3099     Br3106   1.916       .  S
C3100      H3105   1.083       .  S
C3100      C3101   1.407       .  A
C3101      C3102   1.406       .  A
C3102     Br3103   1.921       .  S
C3107      H3114   1.083       .  S
C3107      C3108   1.410       .  A
C3107      C3112   1.398       .  A
C3108      C3109   1.417       .  A
C3109      C3110   1.405       .  A
C3109     Br3116   1.919       .  S
C3110      H3115   1.083       .  S
C3110      C3111   1.404       .  A
C3111      C3112   1.407       .  A
C3112     Br3113   1.920       .  S
C3117      H3124   1.083       .  S
C3117      C3118   1.407       .  A
C3117      C3122   1.406       .  A
C3118      C3119   1.403       .  A
C3119      C3120   1.395       .  A
C3119     Br3126   1.920       .  S
C3120      H3125   1.083       .  S
C3120      C3121   1.408       .  A
C3121      C3122   1.409       .  A
C3122     Br3123   1.915       .  S
C3127      H3134   1.083       .  S
C3127      C3128   1.414       .  A
C3127      C3132   1.416       .  A
C3128      C3129   1.412       .  A
C3129      C3130   1.382       .  A
C3129     Br3136   1.909       .  S
C3130      H3135   1.081       .  S
C3130      C3131   1.396       .  A
C3131      C3132   1.414       .  A
C3132     Br3133   1.916       .  S
C3137      H3144   1.078       .  S
C3137      C3138   1.397       .  A
C3137      C3142   1.392       .  A
C3138      C3139   1.408       .  A
C3139      C3140   1.406       .  A
C3139     Br3146   1.914       .  S
C3140      H3145   1.083       .  S
C3140      C3141   1.410       .  A
C3141      C3142   1.415       .  A
C3142     Br3143   1.924       .  S
C3147      H3154   1.083       .  S
C3147      C3148   1.401       .  A
C3147      C3152   1.395       .  A
C3148      C3149   1.406       .  A
C3149      C3150   1.389       .  A
C3149     Br3156   1.916       .  S
C3150      H3155   1.082       .  S
C3150      C3151   1.407       .  A
C3151      C3152   1.414       .  A
C3152     Br3153   1.922       .  S
C3157      H3164   1.084       .  S
C3157      C3158   1.404       .  A
C3157      C3162   1.394       .  A
C3158      C3159   1.408       .  A
C3159      C3160   1.392       .  A
C3159     Br3166   1.919       .  S
C3160      H3165   1.083       .  S
C3160      C3161   1.405       .  A
C3161      C3162   1.410       .  A
C3162     Br3163   1.918       .  S
C3167      H3174   1.080       .  S
C3167      C3168   1.401       .  A
C3167      C3172   1.396       .  A
C3168      C3169   1.410       .  A
C3169      C3170   1.404       .  A
C3169     Br3176   1.917       .  S
C3170      H3175   1.079       .  S
C3170      C3171   1.416       .  A
C3171      C3172   1.421       .  A
C3172     Br3173   1.921       .  S
C3177      H3184   1.083       .  S
C3177      C3178   1.402       .  A
C3177      C3182   1.397       .  A
C3178      C3179   1.406       .  A
C3179      C3180   1.400       .  A
C3179     Br3186   1.917       .  S
C3180      H3185   1.082       .  S
C3180      C3181   1.413       .  A
C3181      C3182   1.418       .  A
C3182     Br3183   1.923       .  S
C3187      H3194   1.084       .  S
C3187      C3188   1.405       .  A
C3187      C3192   1.389       .  A
C3188      C3189   1.419       .  A
C3189      C3190   1.407       .  A
C3189     Br3196   1.921       .  S
C3190      H3195   1.081       .  S
C3190      C3191   1.411       .  A
C3191      C3192   1.413       .  A
C3192     Br3193   1.921       .  S
C3197      H3204   1.083       .  S
C3197      C3198   1.403       .  A
C3197      C3202   1.402       .  A
C3198      C3199   1.410   1_565  A
C3199      C3200   1.400   1_545  A
C3199     Br3206   1.919       .  S
C3200      H3205   1.083   1_565  S
C3200      C3201   1.403       .  A
C3201      C3202   1.412       .  A
C3202     Br3203   1.920       .  S
C3207      H3214   1.084       .  S
C3207      C3208   1.397       .  A
C3207      C3212   1.394       .  A
C3208      C3209   1.409       .  A
C3209      C3210   1.402       .  A
C3209     Br3216   1.918       .  S
C3210      H3215   1.083       .  S
C3210      C3211   1.401       .  A
C3211      C3212   1.412       .  A
C3212     Br3213   1.923       .  S
C3217      H3224   1.083       .  S
C3217      C3218   1.406       .  A
C3217      C3222   1.401       .  A
C3218      C3219   1.418       .  A
C3219      C3220   1.397       .  A
C3219     Br3226   1.919       .  S
C3220      H3225   1.084       .  S
C3220      C3221   1.401       .  A
C3221      C3222   1.410       .  A
C3222     Br3223   1.919       .  S
C3227      H3234   1.083       .  S
C3227      C3228   1.404       .  A
C3227      C3232   1.405       .  A
C3228      C3229   1.401       .  A
C3229      C3230   1.388       .  A
C3229     Br3236   1.910   1_565  S
C3230      H3235   1.078       .  S
C3230      C3231   1.412       .  A
C3231      C3232   1.425       .  A
C3232     Br3233   1.923       .  S
C3237      H3244   1.079       .  S
C3237      C3238   1.414       .  A
C3237      C3242   1.393       .  A
C3238      C3239   1.419       .  A
C3239      C3240   1.391       .  A
C3239     Br3246   1.927       .  S
C3240      H3245   1.083       .  S
C3240      C3241   1.396       .  A
C3241      C3242   1.404       .  A
C3242     Br3243   1.921       .  S
C3247      H3254   1.082       .  S
C3247      C3248   1.405       .  A
C3247      C3252   1.398       .  A
C3248      C3249   1.408       .  A
C3249      C3250   1.398       .  A
C3249     Br3256   1.919   1_545  S
C3250      H3255   1.083       .  S
C3250      C3251   1.407       .  A
C3251      C3252   1.411       .  A
C3252     Br3253   1.919       .  S
C3257      H3264   1.079   1_545  S
C3257      C3258   1.402       .  A
C3257      C3262   1.393       .  A
C3258      C3259   1.402       .  A
C3259      C3260   1.390       .  A
C3259     Br3266   1.919       .  S
C3260      H3265   1.080       .  S
C3260      C3261   1.413       .  A
C3261      C3262   1.414       .  A
C3262     Br3263   1.924       .  S
C3267      H3274   1.083   1_565  S
C3267      C3268   1.404       .  A
C3267      C3272   1.402       .  A
C3268      C3269   1.411       .  A
C3269      C3270   1.399       .  A
C3269     Br3276   1.912       .  S
C3270      H3275   1.083       .  S
C3270      C3271   1.405       .  A
C3271      C3272   1.415       .  A
C3272     Br3273   1.918   1_565  S
C3277      H3284   1.083       .  S
C3277      C3278   1.402       .  A
C3277      C3282   1.410       .  A
C3278      C3279   1.407       .  A
C3279      C3280   1.388       .  A
C3279     Br3286   1.925       .  S
C3280      H3285   1.083       .  S
C3280      C3281   1.408       .  A
C3281      C3282   1.421       .  A
C3282     Br3283   1.920       .  S
C3287      H3294   1.084       .  S
C3287      C3288   1.408       .  A
C3287      C3292   1.397       .  A
C3288      C3289   1.414       .  A
C3289      C3290   1.405       .  A
C3289     Br3296   1.918       .  S
C3290      H3295   1.083       .  S
C3290      C3291   1.403       .  A
C3291      C3292   1.404       .  A
C3292     Br3293   1.917       .  S
C3297      H3304   1.084       .  S
C3297      C3298   1.396       .  A
C3297      C3302   1.393       .  A
C3298      C3299   1.410       .  A
C3299      C3300   1.406       .  A
C3299     Br3306   1.917       .  S
C3300      H3305   1.083       .  S
C3300      C3301   1.404       .  A
C3301      C3302   1.415       .  A
C3302     Br3303   1.918       .  S
C3307      H3314   1.083       .  S
C3307      C3308   1.404       .  A
C3307      C3312   1.403       .  A
C3308      C3309   1.410       .  A
C3309      C3310   1.398       .  A
C3309     Br3316   1.921       .  S
C3310      H3315   1.084       .  S
C3310      C3311   1.401       .  A
C3311      C3312   1.407       .  A
C3312     Br3313   1.917       .  S
C3317      H3324   1.083       .  S
C3317      C3318   1.405       .  A
C3317      C3322   1.404       .  A
C3318      C3319   1.410       .  A
C3319      C3320   1.396       .  A
C3319     Br3326   1.922       .  S
C3320      H3325   1.084       .  S
C3320      C3321   1.401       .  A
C3321      C3322   1.407       .  A
C3322     Br3323   1.916       .  S
C3327      H3334   1.083       .  S
C3327      C3328   1.400       .  A
C3327      C3332   1.398       .  A
C3328      C3329   1.414       .  A
C3329      C3330   1.400       .  A
C3329     Br3336   1.920       .  S
C3330      H3335   1.083       .  S
C3330      C3331   1.399       .  A
C3331      C3332   1.410       .  A
C3332     Br3333   1.920       .  S
C3337      H3344   1.082       .  S
C3337      C3338   1.401       .  A
C3337      C3342   1.398       .  A
C3338      C3339   1.405       .  A
C3339      C3340   1.392       .  A
C3339     Br3346   1.916       .  S
C3340      H3345   1.083       .  S
C3340      C3341   1.408       .  A
C3341      C3342   1.415       .  A
C3342     Br3343   1.921       .  S
C3347      H3354   1.081       .  S
C3347      C3348   1.400       .  A
C3347      C3352   1.400       .  A
C3348      C3349   1.401       .  A
C3349      C3350   1.395       .  A
C3349     Br3356   1.918       .  S
C3350      H3355   1.080       .  S
C3350      C3351   1.416       .  A
C3351      C3352   1.421       .  A
C3352     Br3353   1.921   1_554  S
C3357      H3364   1.082       .  S
C3357      C3358   1.403       .  A
C3357      C3362   1.399       .  A
C3358      C3359   1.409       .  A
C3359      C3360   1.399       .  A
C3359     Br3366   1.915       .  S
C3360      H3365   1.083       .  S
C3360      C3361   1.407       .  A
C3361      C3362   1.413       .  A
C3362     Br3363   1.920       .  S
C3367      H3374   1.082       .  S
C3367      C3368   1.401       .  A
C3367      C3372   1.401       .  A
C3368      C3369   1.400       .  A
C3369      C3370   1.391       .  A
C3369     Br3376   1.919       .  S
C3370      H3375   1.080       .  S
C3370      C3371   1.416       .  A
C3371      C3372   1.419       .  A
C3372     Br3373   1.921   1_554  S
C3377      H3384   1.083       .  S
C3377      C3378   1.401       .  A
C3377      C3382   1.395       .  A
C3378      C3379   1.404       .  A
C3379      C3380   1.391       .  A
C3379     Br3386   1.910       .  S
C3380      H3385   1.083       .  S
C3380      C3381   1.406       .  A
C3381      C3382   1.415       .  A
C3382     Br3383   1.922       .  S
C3387      H3394   1.083       .  S
C3387      C3388   1.400       .  A
C3387      C3392   1.397       .  A
C3388      C3389   1.409       .  A
C3389      C3390   1.396       .  A
C3389     Br3396   1.909       .  S
C3390      H3395   1.083       .  S
C3390      C3391   1.405       .  A
C3391      C3392   1.417       .  A
C3392     Br3393   1.923       .  S
C3397      H3404   1.083       .  S
C3397      C3398   1.412       .  A
C3397      C3402   1.391       .  A
C3398      C3399   1.415       .  A
C3399      C3400   1.406       .  A
C3399     Br3406   1.919       .  S
C3400      H3405   1.083       .  S
C3400      C3401   1.405       .  A
C3401      C3402   1.403       .  A
C3402     Br3403   1.922       .  S
C3407      H3414   1.083       .  S
C3407      C3408   1.404   1_556  A
C3407      C3412   1.399       .  A
C3408      C3409   1.415       .  A
C3409      C3410   1.400       .  A
C3409     Br3416   1.920       .  S
C3410      H3415   1.083       .  S
C3410      C3411   1.399       .  A
C3411      C3412   1.408   1_554  A
C3412     Br3413   1.920       .  S
C3417      H3424   1.084       .  S
C3417      C3418   1.409       .  A
C3417      C3422   1.400       .  A
C3418      C3419   1.406       .  A
C3419      C3420   1.395       .  A
C3419     Br3426   1.920       .  S
C3420      H3425   1.084       .  S
C3420      C3421   1.406       .  A
C3421      C3422   1.406       .  A
C3422     Br3423   1.918       .  S
C3427      H3434   1.083       .  S
C3427      C3428   1.407       .  A
C3427      C3432   1.402       .  A
C3428      C3429   1.415       .  A
C3429      C3430   1.401       .  A
C3429     Br3436   1.920       .  S
C3430      H3435   1.083       .  S
C3430      C3431   1.401       .  A
C3431      C3432   1.409       .  A
C3432     Br3433   1.920       .  S
C3437      H3444   1.083       .  S
C3437      C3438   1.398       .  A
C3437      C3442   1.398       .  A
C3438      C3439   1.410       .  A
C3439      C3440   1.396       .  A
C3439     Br3446   1.920   1_554  S
C3440      H3445   1.083   1_554  S
C3440      C3441   1.398       .  A
C3441      C3442   1.412       .  A
C3442     Br3443   1.920       .  S
C3447      H3454   1.083       .  S
C3447      C3448   1.402       .  A
C3447      C3452   1.403       .  A
C3448      C3449   1.405       .  A
C3449      C3450   1.397       .  A
C3449     Br3456   1.919       .  S
C3450      H3455   1.084       .  S
C3450      C3451   1.408       .  A
C3451      C3452   1.416       .  A
C3452     Br3453   1.921       .  S
C3457      H3464   1.083       .  S
C3457      C3458   1.408       .  A
C3457      C3462   1.407       .  A
C3458      C3459   1.423       .  A
C3459      C3460   1.389       .  A
C3459     Br3466   1.920       .  S
C3460      H3465   1.085       .  S
C3460      C3461   1.394       .  A
C3461      C3462   1.409       .  A
C3462     Br3463   1.916       .  S
C3467      H3474   1.084       .  S
C3467      C3468   1.403   1_545  A
C3467      C3472   1.398       .  A
C3468      C3469   1.408       .  A
C3469      C3470   1.403       .  A
C3469     Br3476   1.918       .  S
C3470      H3475   1.083       .  S
C3470      C3471   1.403       .  A
C3471      C3472   1.407   1_565  A
C3472     Br3473   1.919       .  S
C3477      H3484   1.085       .  S
C3477      C3478   1.396       .  A
C3477      C3482   1.389       .  A
C3478      C3479   1.408       .  A
C3479      C3480   1.410       .  A
C3479     Br3486   1.914       .  S
C3480      H3485   1.083       .  S
C3480      C3481   1.409       .  A
C3481      C3482   1.418       .  A
C3482     Br3483   1.922       .  S
C3487      H3494   1.084       .  S
C3487      C3488   1.402       .  A
C3487      C3492   1.399       .  A
C3488      C3489   1.408       .  A
C3489      C3490   1.405       .  A
C3489     Br3496   1.917       .  S
C3490      H3495   1.083       .  S
C3490      C3491   1.405       .  A
C3491      C3492   1.411       .  A
C3492     Br3493   1.921       .  S
C3497      H3504   1.083       .  S
C3497      C3498   1.397       .  A
C3497      C3502   1.397       .  A
C3498      C3499   1.414       .  A
C3499      C3500   1.399       .  A
C3499     Br3506   1.921       .  S
C3500      H3505   1.083       .  S
C3500      C3501   1.397       .  A
C3501      C3502   1.410       .  A
C3502     Br3503   1.920       .  S
C3507      H3514   1.084       .  S
C3507      C3508   1.403       .  A
C3507      C3512   1.397       .  A
C3508      C3509   1.412       .  A
C3509      C3510   1.406       .  A
C3509     Br3516   1.918       .  S
C3510      H3515   1.083       .  S
C3510      C3511   1.404       .  A
C3511      C3512   1.409       .  A
C3512     Br3513   1.921       .  S
C3517      H3524   1.084       .  S
C3517      C3518   1.402       .  A
C3517      C3522   1.401       .  A
C3518      C3519   1.406       .  A
C3519      C3520   1.402       .  A
C3519     Br3526   1.917       .  S
C3520      H3525   1.083       .  S
C3520      C3521   1.406       .  A
C3521      C3522   1.413       .  A
C3522     Br3523   1.921       .  S
C3527      H3534   1.084       .  S
C3527      C3528   1.397       .  A
C3527      C3532   1.396       .  A
C3528      C3529   1.412       .  A
C3529      C3530   1.404       .  A
C3529     Br3536   1.917       .  S
C3530      H3535   1.083       .  S
C3530      C3531   1.401       .  A
C3531      C3532   1.412       .  A
C3532     Br3533   1.921       .  S
C3537      H3544   1.083       .  S
C3537      C3538   1.405       .  A
C3537      C3542   1.410       .  A
C3538      C3539   1.405       .  A
C3539      C3540   1.391       .  A
C3539     Br3546   1.924       .  S
C3540      H3545   1.081       .  S
C3540      C3541   1.410       .  A
C3541      C3542   1.419       .  A
C3542     Br3543   1.919       .  S
C3547      H3554   1.083       .  S
C3547      C3548   1.408       .  A
C3547      C3552   1.395       .  A
C3548      C3549   1.407       .  A
C3549      C3550   1.399       .  A
C3549     Br3556   1.918       .  S
C3550      H3555   1.084       .  S
C3550      C3551   1.403       .  A
C3551      C3552   1.401       .  A
C3552     Br3553   1.918       .  S
C3557      H3564   1.080       .  S
C3557      C3558   1.402       .  A
C3557      C3562   1.397       .  A
C3558      C3559   1.410       .  A
C3559      C3560   1.398       .  A
C3559     Br3566   1.918       .  S
C3560      H3565   1.080       .  S
C3560      C3561   1.411       .  A
C3561      C3562   1.420       .  A
C3562     Br3563   1.925       .  S
C3567      H3574   1.078       .  S
C3567      C3568   1.400       .  A
C3567      C3572   1.395       .  A
C3568      C3569   1.406       .  A
C3569      C3570   1.402       .  A
C3569     Br3576   1.914       .  S
C3570      H3575   1.083       .  S
C3570      C3571   1.410       .  A
C3571      C3572   1.413       .  A
C3572     Br3573   1.922       .  S
C3577      H3584   1.083       .  S
C3577      C3578   1.404       .  A
C3577      C3582   1.402       .  A
C3578      C3579   1.408       .  A
C3579      C3580   1.398       .  A
C3579     Br3586   1.910       .  S
C3580      H3585   1.083       .  S
C3580      C3581   1.407       .  A
C3581      C3582   1.417       .  A
C3582     Br3583   1.920       .  S
C3587      H3594   1.083       .  S
C3587      C3588   1.399       .  A
C3587      C3592   1.393       .  A
C3588      C3589   1.404       .  A
C3589      C3590   1.390       .  A
C3589     Br3596   1.917       .  S
C3590      H3595   1.082       .  S
C3590      C3591   1.407       .  A
C3591      C3592   1.414       .  A
C3592     Br3593   1.922       .  S
C3597      H3604   1.080       .  S
C3597      C3598   1.401       .  A
C3597      C3602   1.388       .  A
C3598      C3599   1.409       .  A
C3599      C3600   1.398       .  A
C3599     Br3606   1.918       .  S
C3600      H3605   1.083       .  S
C3600      C3601   1.406       .  A
C3601      C3602   1.408       .  A
C3602     Br3603   1.920       .  S
C3607      H3614   1.084       .  S
C3607      C3608   1.397       .  A
C3607      C3612   1.393       .  A
C3608      C3609   1.406       .  A
C3609      C3610   1.398       .  A
C3609     Br3616   1.915       .  S
C3610      H3615   1.081       .  S
C3610      C3611   1.411       .  A
C3611      C3612   1.422       .  A
C3612     Br3613   1.926       .  S
C3617      H3624   1.082       .  S
C3617      C3618   1.411       .  A
C3617      C3622   1.393       .  A
C3618      C3619   1.418       .  A
C3619      C3620   1.405       .  A
C3619     Br3626   1.921       .  S
C3620      H3625   1.083       .  S
C3620      C3621   1.402       .  A
C3621      C3622   1.404       .  A
C3622     Br3623   1.922       .  S
C3627      H3634   1.083       .  S
C3627      C3628   1.405       .  A
C3627      C3632   1.400       .  A
C3628      C3629   1.418   1_655  A
C3629      C3630   1.396       .  A
C3629     Br3636   1.923       .  S
C3630      H3635   1.084       .  S
C3630      C3631   1.397   1_455  A
C3631      C3632   1.407       .  A
C3632     Br3633   1.918       .  S
C3637      H3644   1.083       .  S
C3637      C3638   1.405       .  A
C3637      C3642   1.399       .  A
C3638      C3639   1.414       .  A
C3639      C3640   1.397       .  A
C3639     Br3646   1.923       .  S
C3640      H3645   1.084       .  S
C3640      C3641   1.400       .  A
C3641      C3642   1.405       .  A
C3642     Br3643   1.917       .  S
C3647      H3654   1.083       .  S
C3647      C3648   1.411       .  A
C3647      C3652   1.392       .  A
C3648      C3649   1.417       .  A
C3649      C3650   1.408       .  A
C3649     Br3656   1.919       .  S
C3650      H3655   1.083       .  S
C3650      C3651   1.405       .  A
C3651      C3652   1.404       .  A
C3652     Br3653   1.922       .  S
C3657      H3664   1.084       .  S
C3657      C3658   1.401       .  A
C3657      C3662   1.395       .  A
C3658      C3659   1.407       .  A
C3659      C3660   1.402       .  A
C3659     Br3666   1.915       .  S
C3660      H3665   1.083       .  S
C3660      C3661   1.402       .  A
C3661      C3662   1.409       .  A
C3662     Br3663   1.923       .  S
C3667      H3674   1.083       .  S
C3667      C3668   1.405       .  A
C3667      C3672   1.401       .  A
C3668      C3669   1.402       .  A
C3669      C3670   1.396       .  A
C3669     Br3676   1.919       .  S
C3670      H3675   1.084       .  S
C3670      C3671   1.411       .  A
C3671      C3672   1.407       .  A
C3672     Br3673   1.917       .  S
C3677      H3684   1.084       .  S
C3677      C3678   1.408       .  A
C3677      C3682   1.398       .  A
C3678      C3679   1.414       .  A
C3679      C3680   1.406       .  A
C3679     Br3686   1.919   1_455  S
C3680      H3685   1.083   1_455  S
C3680      C3681   1.405       .  A
C3681      C3682   1.406       .  A
C3682     Br3683   1.920       .  S
C3687      H3694   1.083       .  S
C3687      C3688   1.414       .  A
C3687      C3692   1.411       .  A
C3688      C3689   1.424       .  A
C3689      C3690   1.383       .  A
C3689     Br3696   1.932       .  S
C3690      H3695   1.084       .  S
C3690      C3691   1.395       .  A
C3691      C3692   1.406       .  A
C3692     Br3693   1.914       .  S
C3697      H3704   1.084       .  S
C3697      C3698   1.398       .  A
C3697      C3702   1.390       .  A
C3698      C3699   1.412       .  A
C3699      C3700   1.407       .  A
C3699     Br3706   1.918       .  S
C3700      H3705   1.083       .  S
C3700      C3701   1.409       .  A
C3701      C3702   1.421       .  A
C3702     Br3703   1.923       .  S
C3707      H3714   1.083       .  S
C3707      C3708   1.404       .  A
C3707      C3712   1.405       .  A
C3708      C3709   1.412       .  A
C3709      C3710   1.398       .  A
C3709     Br3716   1.922       .  S
C3710      H3715   1.083       .  S
C3710      C3711   1.403       .  A
C3711      C3712   1.413       .  A
C3712     Br3713   1.919       .  S
C3717      H3724   1.083       .  S
C3717      C3718   1.407       .  A
C3717      C3722   1.403       .  A
C3718      C3719   1.415       .  A
C3719      C3720   1.398       .  A
C3719     Br3726   1.923       .  S
C3720      H3725   1.084       .  S
C3720      C3721   1.402       .  A
C3721      C3722   1.407       .  A
C3722     Br3723   1.917       .  S
C3727      H3734   1.083       .  S
C3727      C3728   1.412       .  A
C3727      C3732   1.408       .  A
C3728      C3729   1.416       .  A
C3729      C3730   1.388       .  A
C3729     Br3736   1.928       .  S
C3730      H3735   1.084       .  S
C3730      C3731   1.402       .  A
C3731      C3732   1.406       .  A
C3732     Br3733   1.915       .  S
C3737      H3744   1.083       .  S
C3737      C3738   1.408       .  A
C3737      C3742   1.403       .  A
C3738      C3739   1.418       .  A
C3739      C3740   1.400       .  A
C3739     Br3746   1.923       .  S
C3740      H3745   1.084       .  S
C3740      C3741   1.400       .  A
C3741      C3742   1.406       .  A
C3742     Br3743   1.917       .  S
C3747      H3754   1.083       .  S
C3747      C3748   1.407       .  A
C3747      C3752   1.406       .  A
C3748      C3749   1.403       .  A
C3749      C3750   1.395       .  A
C3749     Br3756   1.920       .  S
C3750      H3755   1.084       .  S
C3750      C3751   1.409       .  A
C3751      C3752   1.411       .  A
C3752     Br3753   1.918       .  S
C3757      H3764   1.083       .  S
C3757      C3758   1.413       .  A
C3757      C3762   1.390       .  A
C3758      C3759   1.417       .  A
C3759      C3760   1.408       .  A
C3759     Br3766   1.919       .  S
C3760      H3765   1.083       .  S
C3760      C3761   1.404       .  A
C3761      C3762   1.401       .  A
C3762     Br3763   1.923       .  S
C3767      H3774   1.083       .  S
C3767      C3768   1.405       .  A
C3767      C3772   1.397       .  A
C3768      C3769   1.414       .  A
C3769      C3770   1.402       .  A
C3769     Br3776   1.919       .  S
C3770      H3775   1.083       .  S
C3770      C3771   1.400       .  A
C3771      C3772   1.408       .  A
C3772     Br3773   1.921       .  S
C3777      H3784   1.083       .  S
C3777      C3778   1.401       .  A
C3777      C3782   1.402       .  A
C3778      C3779   1.415       .  A
C3779      C3780   1.396       .  A
C3779     Br3786   1.922       .  S
C3780      H3785   1.083       .  S
C3780      C3781   1.397       .  A
C3781      C3782   1.414       .  A
C3782     Br3783   1.920       .  S
C3787      H3794   1.083       .  S
C3787      C3788   1.409       .  A
C3787      C3792   1.412       .  A
C3788      C3789   1.416       .  A
C3789      C3790   1.387       .  A
C3789     Br3796   1.924       .  S
C3790      H3795   1.085       .  S
C3790      C3791   1.398       .  A
C3791      C3792   1.411       .  A
C3792     Br3793   1.915       .  S
C3797      H3804   1.083       .  S
C3797      C3798   1.410       .  A
C3797      C3802   1.404       .  A
C3798      C3799   1.414       .  A
C3799      C3800   1.396       .  A
C3799     Br3806   1.922       .  S
C3800      H3805   1.084       .  S
C3800      C3801   1.401       .  A
C3801      C3802   1.404       .  A
C3802     Br3803   1.916       .  S
C3807      H3814   1.084       .  S
C3807      C3808   1.403       .  A
C3807      C3812   1.395       .  A
C3808      C3809   1.403       .  A
C3809      C3810   1.399       .  A
C3809     Br3816   1.917       .  S
C3810      H3815   1.084       .  S
C3810      C3811   1.407       .  A
C3811      C3812   1.403       .  A
C3812     Br3813   1.918       .  S
C3817      H3824   1.083       .  S
C3817      C3818   1.399       .  A
C3817      C3822   1.401       .  A
C3818      C3819   1.410       .  A
C3819      C3820   1.395       .  A
C3819     Br3826   1.921       .  S
C3820      H3825   1.084       .  S
C3820      C3821   1.399       .  A
C3821      C3822   1.412       .  A
C3822     Br3823   1.917       .  S
C3827      H3834   1.083       .  S
C3827      C3828   1.413       .  A
C3827      C3832   1.412       .  A
C3828      C3829   1.418       .  A
C3829      C3830   1.386       .  A
C3829     Br3836   1.914       .  S
C3830      H3835   1.085       .  S
C3830      C3831   1.397       .  A
C3831      C3832   1.411       .  A
C3832     Br3833   1.916       .  S
C3837      H3844   1.083       .  S
C3837      C3838   1.411       .  A
C3837      C3842   1.409       .  A
C3838      C3839   1.425       .  A
C3839      C3840   1.385       .  A
C3839     Br3846   1.932       .  S
C3840      H3845   1.085       .  S
C3840      C3841   1.396       .  A
C3841      C3842   1.408       .  A
C3842     Br3843   1.915       .  S
C3847      H3854   1.083       .  S
C3847      C3848   1.406       .  A
C3847      C3852   1.403       .  A
C3848      C3849   1.414       .  A
C3849      C3850   1.401       .  A
C3849     Br3856   1.921       .  S
C3850      H3855   1.083       .  S
C3850      C3851   1.401       .  A
C3851      C3852   1.409       .  A
C3852     Br3853   1.919       .  S
C3857      H3864   1.085       .  S
C3857      C3858   1.396       .  A
C3857      C3862   1.390       .  A
C3858      C3859   1.412       .  A
C3859      C3860   1.408       .  A
C3859     Br3866   1.918       .  S
C3860      H3865   1.083       .  S
C3860      C3861   1.411       .  A
C3861      C3862   1.423       .  A
C3862     Br3863   1.915       .  S
C3867      H3874   1.083       .  S
C3867      C3868   1.408       .  A
C3867      C3872   1.407       .  A
C3868      C3869   1.407       .  A
C3869      C3870   1.394       .  A
C3869     Br3876   1.922       .  S
C3870      H3875   1.083       .  S
C3870      C3871   1.402       .  A
C3871      C3872   1.407       .  A
C3872     Br3873   1.915       .  S
C3877      H3884   1.083       .  S
C3877      C3878   1.408   1_554  A
C3877      C3882   1.395       .  A
C3878      C3879   1.413       .  A
C3879      C3880   1.408       .  A
C3879     Br3886   1.918       .  S
C3880      H3885   1.083       .  S
C3880      C3881   1.408   1_556  A
C3881      C3882   1.406       .  A
C3882     Br3883   1.922       .  S
C3887      H3894   1.083       .  S
C3887      C3888   1.408       .  A
C3887      C3892   1.408       .  A
C3888      C3889   1.417       .  A
C3889      C3890   1.387       .  A
C3889     Br3896   1.921       .  S
C3890      H3895   1.084       .  S
C3890      C3891   1.398       .  A
C3891      C3892   1.411       .  A
C3892     Br3893   1.917       .  S
C3897      H3904   1.083       .  S
C3897      C3898   1.403       .  A
C3897      C3902   1.406       .  A
C3898      C3899   1.417       .  A
C3899      C3900   1.399       .  A
C3899     Br3906   1.922       .  S
C3900      H3905   1.084       .  S
C3900      C3901   1.397       .  A
C3901      C3902   1.413       .  A
C3902     Br3903   1.917       .  S
C3907      H3914   1.083   1_565  S
C3907      C3908   1.405       .  A
C3907      C3912   1.403   1_565  A
C3908      C3909   1.412       .  A
C3909      C3910   1.394       .  A
C3909     Br3916   1.923       .  S
C3910      H3915   1.084       .  S
C3910      C3911   1.400       .  A
C3911      C3912   1.407   1_565  A
C3912     Br3913   1.916       .  S
C3917      H3924   1.084       .  S
C3917      C3918   1.408       .  A
C3917      C3922   1.397       .  A
C3918      C3919   1.416       .  A
C3919      C3920   1.407       .  A
C3919     Br3926   1.919       .  S
C3920      H3925   1.083       .  S
C3920      C3921   1.404       .  A
C3921      C3922   1.406       .  A
C3922     Br3923   1.920       .  S
C3927      H3934   1.083       .  S
C3927      C3928   1.412       .  A
C3927      C3932   1.394       .  A
C3928      C3929   1.419       .  A
C3929      C3930   1.402       .  A
C3929     Br3936   1.923       .  S
C3930      H3935   1.084       .  S
C3930      C3931   1.402       .  A
C3931      C3932   1.402       .  A
C3932     Br3933   1.920       .  S
C3937      H3944   1.085       .  S
C3937      C3938   1.398       .  A
C3937      C3942   1.387       .  A
C3938      C3939   1.406       .  A
C3939      C3940   1.412       .  A
C3939     Br3946   1.914       .  S
C3940      H3945   1.083       .  S
C3940      C3941   1.414       .  A
C3941      C3942   1.424       .  A
C3942     Br3943   1.931       .  S
C3947      H3954   1.084       .  S
C3947      C3948   1.409       .  A
C3947      C3952   1.403       .  A
C3948      C3949   1.407       .  A
C3949      C3950   1.396       .  A
C3949     Br3956   1.921       .  S
C3950      H3955   1.084       .  S
C3950      C3951   1.407       .  A
C3951      C3952   1.407       .  A
C3952     Br3953   1.917       .  S
C3957      H3964   1.081       .  S
C3957      C3958   1.407       .  A
C3957      C3962   1.406       .  A
C3958      C3959   1.410       .  A
C3959      C3960   1.395       .  A
C3959     Br3966   1.911       .  S
C3960      H3965   1.079       .  S
C3960      C3961   1.411       .  A
C3961      C3962   1.425       .  A
C3962     Br3963   1.923       .  S
C3967      H3974   1.084       .  S
C3967      C3968   1.399       .  A
C3967      C3972   1.386       .  A
C3968      C3969   1.409       .  A
C3969      C3970   1.399       .  A
C3969     Br3976   1.919       .  S
C3970      H3975   1.083       .  S
C3970      C3971   1.407       .  A
C3971      C3972   1.413       .  A
C3972     Br3973   1.913       .  S
C3977      H3984   1.083       .  S
C3977      C3978   1.405       .  A
C3977      C3982   1.403       .  A
C3978      C3979   1.403       .  A
C3979      C3980   1.386       .  A
C3979     Br3986   1.920       .  S
C3980      H3985   1.081       .  S
C3980      C3981   1.411       .  A
C3981      C3982   1.417       .  A
C3982     Br3983   1.920       .  S
C3987      H3994   1.082       .  S
C3987      C3988   1.407       .  A
C3987      C3992   1.397       .  A
C3988      C3989   1.407       .  A
C3989      C3990   1.388       .  A
C3989     Br3996   1.916       .  S
C3990      H3995   1.082       .  S
C3990      C3991   1.409       .  A
C3991      C3992   1.413       .  A
C3992     Br3993   1.922       .  S
C3997      H4004   1.082       .  S
C3997      C3998   1.408       .  A
C3997      C4002   1.400       .  A
C3998      C3999   1.414       .  A
C3999      C4000   1.400       .  A
C3999     Br4006   1.915       .  S
C4000      H4005   1.083       .  S
C4000      C4001   1.404       .  A
C4001      C4002   1.410       .  A
C4002     Br4003   1.919       .  S
C4007      H4014   1.083       .  S
C4007      C4008   1.406       .  A
C4007      C4012   1.395       .  A
C4008      C4009   1.414       .  A
C4009      C4010   1.397       .  A
C4009     Br4016   1.916       .  S
C4010      H4015   1.083       .  S
C4010      C4011   1.401       .  A
C4011      C4012   1.408       .  A
C4012     Br4013   1.920       .  S
C4017      H4024   1.083       .  S
C4017      C4018   1.412       .  A
C4017      C4022   1.394       .  A
C4018      C4019   1.418       .  A
C4019      C4020   1.406       .  A
C4019     Br4026   1.921       .  S
C4020      H4025   1.083       .  S
C4020      C4021   1.404       .  A
C4021      C4022   1.405       .  A
C4022     Br4023   1.922       .  S
C4027      H4034   1.083       .  S
C4027      C4028   1.404       .  A
C4027      C4032   1.406       .  A
C4028      C4029   1.414       .  A
C4029      C4030   1.395       .  A
C4029     Br4036   1.923       .  S
C4030      H4035   1.084       .  S
C4030      C4031   1.399       .  A
C4031      C4032   1.413       .  A
C4032     Br4033   1.918       .  S
C4037      H4044   1.083       .  S
C4037      C4038   1.406       .  A
C4037      C4042   1.403       .  A
C4038      C4039   1.403       .  A
C4039      C4040   1.396       .  A
C4039     Br4046   1.919       .  S
C4040      H4045   1.084       .  S
C4040      C4041   1.406       .  A
C4041      C4042   1.408       .  A
C4042     Br4043   1.917       .  S
C4047      H4054   1.083       .  S
C4047      C4048   1.406       .  A
C4047      C4052   1.400       .  A
C4048      C4049   1.414       .  A
C4049      C4050   1.405       .  A
C4049     Br4056   1.918       .  S
C4050      H4055   1.083       .  S
C4050      C4051   1.402       .  A
C4051      C4052   1.409       .  A
C4052     Br4053   1.921       .  S
C4057      H4064   1.084       .  S
C4057      C4058   1.403       .  A
C4057      C4062   1.397       .  A
C4058      C4059   1.409       .  A
C4059      C4060   1.403       .  A
C4059     Br4066   1.917       .  S
C4060      H4065   1.083       .  S
C4060      C4061   1.404       .  A
C4061      C4062   1.409       .  A
C4062     Br4063   1.921       .  S
C4067      H4074   1.084       .  S
C4067      C4068   1.410       .  A
C4067      C4072   1.401       .  A
C4068      C4069   1.405       .  A
C4069      C4070   1.397       .  A
C4069     Br4076   1.919       .  S
C4070      H4075   1.084       .  S
C4070      C4071   1.407       .  A
C4071      C4072   1.405       .  A
C4072     Br4073   1.918       .  S
C4077      H4084   1.083       .  S
C4077      C4078   1.408       .  A
C4077      C4082   1.407       .  A
C4078      C4079   1.418       .  A
C4079      C4080   1.389       .  A
C4079     Br4086   1.927       .  S
C4080      H4085   1.084       .  S
C4080      C4081   1.401       .  A
C4081      C4082   1.412       .  A
C4082     Br4083   1.917       .  S
C4087      H4094   1.083       .  S
C4087      C4088   1.409       .  A
C4087      C4092   1.405       .  A
C4088      C4089   1.425       .  A
C4089      C4090   1.394       .  A
C4089     Br4096   1.923       .  S
C4090      H4095   1.084       .  S
C4090      C4091   1.395       .  A
C4091      C4092   1.408       .  A
C4092     Br4093   1.918       .  S
C4097      H4104   1.082       .  S
C4097      C4098   1.401       .  A
C4097      C4102   1.400       .  A
C4098      C4099   1.402       .  A
C4099      C4100   1.391       .  A
C4099     Br4106   1.917       .  S
C4100      H4105   1.081       .  S
C4100      C4101   1.413       .  A
C4101      C4102   1.416       .  A
C4102     Br4103   1.921       .  S
C4107      H4114   1.081       .  S
C4107      C4108   1.402       .  A
C4107      C4112   1.400       .  A
C4108      C4109   1.410       .  A
C4109      C4110   1.401       .  A
C4109     Br4116   1.916       .  S
C4110      H4115   1.083       .  S
C4110      C4111   1.406       .  A
C4111      C4112   1.413       .  A
C4112     Br4113   1.920       .  S
C4117      H4124   1.081       .  S
C4117      C4118   1.400       .  A
C4117      C4122   1.392       .  A
C4118      C4119   1.413       .  A
C4119      C4120   1.402       .  A
C4119     Br4126   1.915       .  S
C4120      H4125   1.083       .  S
C4120      C4121   1.405       .  A
C4121      C4122   1.412       .  A
C4122     Br4123   1.923       .  S
C4127      H4134   1.082       .  S
C4127      C4128   1.396       .  A
C4127      C4132   1.396       .  A
C4128      C4129   1.409       .  A
C4129      C4130   1.400       .  A
C4129     Br4136   1.918       .  S
C4130      H4135   1.081       .  S
C4130      C4131   1.410       .  A
C4131      C4132   1.422       .  A
C4132     Br4133   1.926       .  S
C4137      H4144   1.083       .  S
C4137      C4138   1.402       .  A
C4137      C4142   1.399       .  A
C4138      C4139   1.404       .  A
C4139      C4140   1.390       .  A
C4139     Br4146   1.910       .  S
C4140      H4145   1.083       .  S
C4140      C4141   1.406       .  A
C4141      C4142   1.415       .  A
C4142     Br4143   1.920       .  S
C4147      H4154   1.082       .  S
C4147      C4148   1.408       .  A
C4147      C4152   1.391       .  A
C4148      C4149   1.421       .  A
C4149      C4150   1.396       .  A
C4149     Br4156   1.924       .  S
C4150      H4155   1.083       .  S
C4150      C4151   1.398       .  A
C4151      C4152   1.403       .  A
C4152     Br4153   1.910       .  S
C4157      H4164   1.083       .  S
C4157      C4158   1.408       .  A
C4157      C4162   1.402       .  A
C4158      C4159   1.410       .  A
C4159      C4160   1.400       .  A
C4159     Br4166   1.919       .  S
C4160      H4165   1.083       .  S
C4160      C4161   1.404       .  A
C4161      C4162   1.407       .  A
C4162     Br4163   1.919       .  S
C4167      H4174   1.083       .  S
C4167      C4168   1.412       .  A
C4167      C4172   1.392       .  A
C4168      C4169   1.419       .  A
C4169      C4170   1.408       .  A
C4169     Br4176   1.920       .  S
C4170      H4175   1.083       .  S
C4170      C4171   1.404       .  A
C4171      C4172   1.404       .  A
C4172     Br4173   1.923       .  S
C4177      H4184   1.084       .  S
C4177      C4178   1.412       .  A
C4177      C4182   1.396       .  A
C4178      C4179   1.408       .  A
C4179      C4180   1.401       .  A
C4179     Br4186   1.918       .  S
C4180      H4185   1.084       .  S
C4180      C4181   1.405       .  A
C4181      C4182   1.401       .  A
C4182     Br4183   1.918       .  S
C4187      H4194   1.084       .  S
C4187      C4188   1.400       .  A
C4187      C4192   1.402       .  A
C4188      C4189   1.404       .  A
C4189      C4190   1.399       .  A
C4189     Br4196   1.919       .  S
C4190      H4195   1.083       .  S
C4190      C4191   1.411       .  A
C4191      C4192   1.420       .  A
C4192     Br4193   1.922       .  S
C4197      H4204   1.084       .  S
C4197      C4198   1.402       .  A
C4197      C4202   1.396       .  A
C4198      C4199   1.405       .  A
C4199      C4200   1.403       .  A
C4199     Br4206   1.917       .  S
C4200      H4205   1.083       .  S
C4200      C4201   1.409       .  A
C4201      C4202   1.412       .  A
C4202     Br4203   1.922       .  S
C4207      H4214   1.084       .  S
C4207      C4208   1.408       .  A
C4207      C4212   1.399       .  A
C4208      C4209   1.403       .  A
C4209      C4210   1.397       .  A
C4209     Br4216   1.918       .  S
C4210      H4215   1.084       .  S
C4210      C4211   1.409       .  A
C4211      C4212   1.407       .  A
C4212     Br4213   1.919       .  S
C4217      H4224   1.083       .  S
C4217      C4218   1.402       .  A
C4217      C4222   1.403       .  A
C4218      C4219   1.404       .  A
C4219      C4220   1.394       .  A
C4219     Br4226   1.921       .  S
C4220      H4225   1.083       .  S
C4220      C4221   1.411       .  A
C4221      C4222   1.419       .  A
C4222     Br4223   1.922       .  S
C4227      H4234   1.083       .  S
C4227      C4228   1.409       .  A
C4227      C4232   1.404       .  A
C4228      C4229   1.402       .  A
C4229      C4230   1.396       .  A
C4229     Br4236   1.919       .  S
C4230      H4235   1.084       .  S
C4230      C4231   1.410       .  A
C4231      C4232   1.407       .  A
C4232     Br4233   1.917       .  S
C4237      H4244   1.078       .  S
C4237      C4238   1.414       .  A
C4237      C4242   1.393       .  A
C4238      C4239   1.425       .  A
C4239      C4240   1.394       .  A
C4239     Br4246   1.927       .  S
C4240      H4245   1.083       .  S
C4240      C4241   1.394       .  A
C4241      C4242   1.405       .  A
C4242     Br4243   1.920       .  S
C4247      H4254   1.083       .  S
C4247      C4248   1.411       .  A
C4247      C4252   1.407       .  A
C4248      C4249   1.410       .  A
C4249      C4250   1.386       .  A
C4249     Br4256   1.906       .  S
C4250      H4255   1.084       .  S
C4250      C4251   1.401       .  A
C4251      C4252   1.408       .  A
C4252     Br4253   1.916       .  S
C4257      H4264   1.083       .  S
C4257      C4258   1.403       .  A
C4257      C4262   1.402       .  A
C4258      C4259   1.408       .  A
C4259      C4260   1.390       .  A
C4259     Br4266   1.913       .  S
C4260      H4265   1.083       .  S
C4260      C4261   1.403       .  A
C4261      C4262   1.413       .  A
C4262     Br4263   1.919       .  S
C4267      H4274   1.077       .  S
C4267      C4268   1.396       .  A
C4267      C4272   1.399       .  A
C4268      C4269   1.401       .  A
C4269      C4270   1.398       .  A
C4269     Br4276   1.911       .  S
C4270      H4275   1.075       .  S
C4270      C4271   1.419       .  A
C4271      C4272   1.429       .  A
C4272     Br4273   1.923       .  S
C4277      H4284   1.083       .  S
C4277      C4278   1.402       .  A
C4277      C4282   1.401       .  A
C4278      C4279   1.408       .  A
C4279      C4280   1.398       .  A
C4279     Br4286   1.919       .  S
C4280      H4285   1.081       .  S
C4280      C4281   1.406       .  A
C4281      C4282   1.415       .  A
C4282     Br4283   1.918       .  S
C4287      H4294   1.084       .  S
C4287      C4288   1.399       .  A
C4287      C4292   1.396       .  A
C4288      C4289   1.405       .  A
C4289      C4290   1.387       .  A
C4289     Br4296   1.916       .  S
C4290      H4295   1.079       .  S
C4290      C4291   1.408       .  A
C4291      C4292   1.421       .  A
C4292     Br4293   1.925       .  S
C4297      H4304   1.083       .  S
C4297      C4298   1.409       .  A
C4297      C4302   1.416       .  A
C4298      C4299   1.412       .  A
C4299      C4300   1.385       .  A
C4299     Br4306   1.922       .  S
C4300      H4305   1.081       .  S
C4300      C4301   1.400       .  A
C4301      C4302   1.417       .  A
C4302     Br4303   1.916       .  S
C4307      H4314   1.083       .  S
C4307      C4308   1.404       .  A
C4307      C4312   1.404       .  A
C4308      C4309   1.400       .  A
C4309      C4310   1.391       .  A
C4309     Br4316   1.921       .  S
C4310      H4315   1.083       .  S
C4310      C4311   1.411       .  A
C4311      C4312   1.414       .  A
C4312     Br4313   1.917       .  S
C4317      H4324   1.083       .  S
C4317      C4318   1.412       .  A
C4317      C4322   1.394       .  A
C4318      C4319   1.418       .  A
C4319      C4320   1.405       .  A
C4319     Br4326   1.919       .  S
C4320      H4325   1.083       .  S
C4320      C4321   1.402       .  A
C4321      C4322   1.403       .  A
C4322     Br4323   1.921       .  S
C4327      H4334   1.083       .  S
C4327      C4328   1.402       .  A
C4327      C4332   1.400       .  A
C4328      C4329   1.417       .  A
C4329      C4330   1.397       .  A
C4329     Br4336   1.923       .  S
C4330      H4335   1.084       .  S
C4330      C4331   1.397       .  A
C4331      C4332   1.411       .  A
C4332     Br4333   1.919       .  S
C4337      H4344   1.083       .  S
C4337      C4338   1.410       .  A
C4337      C4342   1.397       .  A
C4338      C4339   1.415       .  A
C4339      C4340   1.403       .  A
C4339     Br4346   1.920       .  S
C4340      H4345   1.083       .  S
C4340      C4341   1.404       .  A
C4341      C4342   1.405       .  A
C4342     Br4343   1.921       .  S
C4347      H4354   1.084       .  S
C4347      C4348   1.406       .  A
C4347      C4352   1.401       .  A
C4348      C4349   1.401       .  A
C4349      C4350   1.394       .  A
C4349     Br4356   1.918       .  S
C4350      H4355   1.084       .  S
C4350      C4351   1.409       .  A
C4351      C4352   1.406       .  A
C4352     Br4353   1.918       .  S
C4357      H4364   1.084       .  S
C4357      C4358   1.404       .  A
C4357      C4362   1.397       .  A
C4358      C4359   1.410       .  A
C4359      C4360   1.404       .  A
C4359     Br4366   1.917       .  S
C4360      H4365   1.083       .  S
C4360      C4361   1.405       .  A
C4361      C4362   1.409       .  A
C4362     Br4363   1.922       .  S
C4367      H4374   1.084   1_554  S
C4367      C4368   1.395       .  A
C4367      C4372   1.391       .  A
C4368      C4369   1.409       .  A
C4369      C4370   1.401       .  A
C4369     Br4376   1.918       .  S
C4370      H4375   1.083       .  S
C4370      C4371   1.402       .  A
C4371      C4372   1.414       .  A
C4372     Br4373   1.923   1_554  S
C4377      H4384   1.083       .  S
C4377      C4378   1.400       .  A
C4377      C4382   1.402       .  A
C4378      C4379   1.415       .  A
C4379      C4380   1.398       .  A
C4379     Br4386   1.921       .  S
C4380      H4385   1.083       .  S
C4380      C4381   1.398       .  A
C4381      C4382   1.416       .  A
C4382     Br4383   1.921       .  S
C4387      H4394   1.083       .  S
C4387      C4388   1.400       .  A
C4387      C4392   1.402       .  A
C4388      C4389   1.407       .  A
C4389      C4390   1.401       .  A
C4389     Br4396   1.919       .  S
C4390      H4395   1.083       .  S
C4390      C4391   1.408       .  A
C4391      C4392   1.416       .  A
C4392     Br4393   1.920       .  S
C4397      H4404   1.083       .  S
C4397      C4398   1.409       .  A
C4397      C4402   1.405       .  A
C4398      C4399   1.411   1_545  A
C4399      C4400   1.397       .  A
C4399     Br4406   1.921       .  S
C4400      H4405   1.084       .  S
C4400      C4401   1.404   1_565  A
C4401      C4402   1.410       .  A
C4402     Br4403   1.918       .  S
C4407      H4414   1.083       .  S
C4407      C4408   1.402       .  A
C4407      C4412   1.403       .  A
C4408      C4409   1.407       .  A
C4409      C4410   1.400       .  A
C4409     Br4416   1.920       .  S
C4410      H4415   1.083       .  S
C4410      C4411   1.407       .  A
C4411      C4412   1.414       .  A
C4412     Br4413   1.919       .  S
C4417      H4424   1.084       .  S
C4417      C4418   1.402   1_556  A
C4417      C4422   1.397       .  A
C4418      C4419   1.408       .  A
C4419      C4420   1.405       .  A
C4419     Br4426   1.916       .  S
C4420      H4425   1.083       .  S
C4420      C4421   1.407       .  A
C4421      C4422   1.413   1_554  A
C4422     Br4423   1.923       .  S
C4427      H4434   1.082   1_554  S
C4427      C4428   1.411       .  A
C4427      C4432   1.397       .  A
C4428      C4429   1.417       .  A
C4429      C4430   1.408       .  A
C4429     Br4436   1.920       .  S
C4430      H4435   1.083       .  S
C4430      C4431   1.406       .  A
C4431      C4432   1.406       .  A
C4432     Br4433   1.922   1_554  S
C4437      H4444   1.083       .  S
C4437      C4438   1.404       .  A
C4437      C4442   1.407       .  A
C4438      C4439   1.404       .  A
C4439      C4440   1.388       .  A
C4439     Br4446   1.923   1_565  S
C4440      H4445   1.083       .  S
C4440      C4441   1.409       .  A
C4441      C4442   1.417       .  A
C4442     Br4443   1.919       .  S
C4447      H4454   1.084       .  S
C4447      C4448   1.397       .  A
C4447      C4452   1.395       .  A
C4448      C4449   1.413   1_565  A
C4449      C4450   1.402       .  A
C4449     Br4456   1.919       .  S
C4450      H4455   1.083       .  S
C4450      C4451   1.399       .  A
C4451      C4452   1.411   1_545  A
C4452     Br4453   1.921       .  S
C4457      H4464   1.083       .  S
C4457      C4458   1.409       .  A
C4457      C4462   1.402       .  A
C4458      C4459   1.407       .  A
C4459      C4460   1.397       .  A
C4459     Br4466   1.920       .  S
C4460      H4465   1.084       .  S
C4460      C4461   1.406       .  A
C4461      C4462   1.407       .  A
C4462     Br4463   1.918       .  S
C4467      H4474   1.084       .  S
C4467      C4468   1.397       .  A
C4467      C4472   1.398       .  A
C4468      C4469   1.412       .  A
C4469      C4470   1.405       .  A
C4469     Br4476   1.917       .  S
C4470      H4475   1.083       .  S
C4470      C4471   1.403       .  A
C4471      C4472   1.417       .  A
C4472     Br4473   1.922       .  S
C4477      H4484   1.083       .  S
C4477      C4478   1.408       .  A
C4477      C4482   1.399       .  A
C4478      C4479   1.413       .  A
C4479      C4480   1.403       .  A
C4479     Br4486   1.920       .  S
C4480      H4485   1.083       .  S
C4480      C4481   1.402       .  A
C4481      C4482   1.404       .  A
C4482     Br4483   1.916       .  S
C4487      H4494   1.083       .  S
C4487      C4488   1.407       .  A
C4487      C4492   1.398       .  A
C4488      C4489   1.404       .  A
C4489      C4490   1.397       .  A
C4489     Br4496   1.918       .  S
C4490      H4495   1.084       .  S
C4490      C4491   1.404       .  A
C4491      C4492   1.402       .  A
C4492     Br4493   1.918       .  S
C4497      H4504   1.083       .  S
C4497      C4498   1.409       .  A
C4497      C4502   1.407       .  A
C4498      C4499   1.407       .  A
C4499      C4500   1.395       .  A
C4499     Br4506   1.921   1_565  S
C4500      H4505   1.084       .  S
C4500      C4501   1.405       .  A
C4501      C4502   1.409       .  A
C4502     Br4503   1.917       .  S
C4507      H4514   1.084       .  S
C4507      C4508   1.401       .  A
C4507      C4512   1.387       .  A
C4508      C4509   1.413       .  A
C4509      C4510   1.415       .  A
C4509     Br4516   1.915   1_565  S
C4510      H4515   1.083   1_565  S
C4510      C4511   1.410       .  A
C4511      C4512   1.414       .  A
C4512     Br4513   1.924       .  S
C4517      H4524   1.084       .  S
C4517      C4518   1.402   1_556  A
C4517      C4522   1.404       .  A
C4518      C4519   1.403       .  A
C4519      C4520   1.396       .  A
C4519     Br4526   1.920       .  S
C4520      H4525   1.083       .  S
C4520      C4521   1.412       .  A
C4521      C4522   1.420   1_554  A
C4522     Br4523   1.922       .  S
C4527      H4534   1.083       .  S
C4527      C4528   1.405       .  A
C4527      C4532   1.400       .  A
C4528      C4529   1.413   1_554  A
C4529      C4530   1.398       .  A
C4529     Br4536   1.921       .  S
C4530      H4535   1.083       .  S
C4530      C4531   1.400   1_556  A
C4531      C4532   1.407       .  A
C4532     Br4533   1.919       .  S
C4537      H4544   1.080       .  S
C4537      C4538   1.404       .  A
C4537      C4542   1.397       .  A
C4538      C4539   1.408       .  A
C4539      C4540   1.395       .  A
C4539     Br4546   1.919   1_565  S
C4540      H4545   1.080       .  S
C4540      C4541   1.412       .  A
C4541      C4542   1.418       .  A
C4542     Br4543   1.925   1_565  S
C4547      H4554   1.083       .  S
C4547      C4548   1.407       .  A
C4547      C4552   1.400       .  A
C4548      C4549   1.413   1_554  A
C4549      C4550   1.399   1_556  A
C4549     Br4556   1.920       .  S
C4550      H4555   1.080   1_554  S
C4550      C4551   1.403       .  A
C4551      C4552   1.406       .  A
C4552     Br4553   1.915       .  S
C4557      H4564   1.083       .  S
C4557      C4558   1.409       .  A
C4557      C4562   1.399       .  A
C4558      C4559   1.410       .  A
C4559      C4560   1.387       .  A
C4559     Br4566   1.921       .  S
C4560      H4565   1.075       .  S
C4560      C4561   1.398       .  A
C4561      C4562   1.407       .  A
C4562     Br4563   1.918       .  S
C4567      H4574   1.082       .  S
C4567      C4568   1.410       .  A
C4567      C4572   1.404       .  A
C4568      C4569   1.420       .  A
C4569      C4570   1.392       .  A
C4569     Br4576   1.926       .  S
C4570      H4575   1.081   1_556  S
C4570      C4571   1.394       .  A
C4571      C4572   1.408       .  A
C4572     Br4573   1.918   1_545  S
C4577      H4584   1.083       .  S
C4577      C4578   1.402       .  A
C4577      C4582   1.402       .  A
C4578      C4579   1.410       .  A
C4579      C4580   1.400       .  A
C4579     Br4586   1.917       .  S
C4580      H4585   1.082       .  S
C4580      C4581   1.409       .  A
C4581      C4582   1.420       .  A
C4582     Br4583   1.922   1_554  S
C4587      H4594   1.083   1_565  S
C4587      C4588   1.406       .  A
C4587      C4592   1.390       .  A
C4588      C4589   1.411       .  A
C4589      C4590   1.393       .  A
C4589     Br4596   1.921       .  S
C4590      H4595   1.082       .  S
C4590      C4591   1.401       .  A
C4591      C4592   1.407       .  A
C4592     Br4593   1.916   1_566  S
C4597      H4604   1.084       .  S
C4597      C4598   1.403       .  A
C4597      C4602   1.405       .  A
C4598      C4599   1.401       .  A
C4599      C4600   1.398       .  A
C4599     Br4606   1.919       .  S
C4600      H4605   1.083       .  S
C4600      C4601   1.414       .  A
C4601      C4602   1.419       .  A
C4602     Br4603   1.922       .  S
C4607      H4614   1.084       .  S
C4607      C4608   1.407       .  A
C4607      C4612   1.401       .  A
C4608      C4609   1.404       .  A
C4609      C4610   1.394       .  A
C4609     Br4616   1.920   1_554  S
C4610      H4615   1.084       .  S
C4610      C4611   1.407       .  A
C4611      C4612   1.408       .  A
C4612     Br4613   1.918       .  S
C4617      H4624   1.082       .  S
C4617      C4618   1.412       .  A
C4617      C4622   1.393       .  A
C4618      C4619   1.419       .  A
C4619      C4620   1.403       .  A
C4619     Br4626   1.922       .  S
C4620      H4625   1.083       .  S
C4620      C4621   1.402       .  A
C4621      C4622   1.402       .  A
C4622     Br4623   1.921       .  S
C4627      H4634   1.083       .  S
C4627      C4628   1.401       .  A
C4627      C4632   1.403       .  A
C4628      C4629   1.417       .  A
C4629      C4630   1.397       .  A
C4629     Br4636   1.921       .  S
C4630      H4635   1.083       .  S
C4630      C4631   1.395       .  A
C4631      C4632   1.413       .  A
C4632     Br4633   1.919       .  S
C4637      H4644   1.083       .  S
C4637      C4638   1.407   1_655  A
C4637      C4642   1.405       .  A
C4638      C4639   1.415       .  A
C4639      C4640   1.399       .  A
C4639     Br4646   1.923       .  S
C4640      H4645   1.084       .  S
C4640      C4641   1.402       .  A
C4641      C4642   1.408   1_455  A
C4642     Br4643   1.917       .  S
C4647      H4654   1.083       .  S
C4647      C4648   1.410       .  A
C4647      C4652   1.385       .  A
C4648      C4649   1.418       .  A
C4649      C4650   1.410       .  A
C4649     Br4656   1.913       .  S
C4650      H4655   1.083       .  S
C4650      C4651   1.403       .  A
C4651      C4652   1.404       .  A
C4652     Br4653   1.927       .  S
C4657      H4664   1.084       .  S
C4657      C4658   1.411       .  A
C4657      C4662   1.401       .  A
C4658      C4659   1.405       .  A
C4659      C4660   1.399       .  A
C4659     Br4666   1.918       .  S
C4660      H4665   1.084       .  S
C4660      C4661   1.408       .  A
C4661      C4662   1.404       .  A
C4662     Br4663   1.918       .  S
C4667      H4674   1.083       .  S
C4667      C4668   1.410       .  A
C4667      C4672   1.403       .  A
C4668      C4669   1.424       .  A
C4669      C4670   1.395       .  A
C4669     Br4676   1.926       .  S
C4670      H4675   1.084       .  S
C4670      C4671   1.397       .  A
C4671      C4672   1.407       .  A
C4672     Br4673   1.918       .  S
C4677      H4684   1.083       .  S
C4677      C4678   1.403       .  A
C4677      C4682   1.409       .  A
C4678      C4679   1.403   1_554  A
C4679      C4680   1.394       .  A
C4679     Br4686   1.922       .  S
C4680      H4685   1.081       .  S
C4680      C4681   1.411   1_556  A
C4681      C4682   1.420       .  A
C4682     Br4683   1.920       .  S
C4687      H4694   1.082       .  S
C4687      C4688   1.398   1_554  A
C4687      C4692   1.386       .  A
C4688      C4689   1.407       .  A
C4689      C4690   1.410       .  A
C4689     Br4696   1.915       .  S
C4690      H4695   1.083       .  S
C4690      C4691   1.412       .  A
C4691      C4692   1.417   1_556  A
C4692     Br4693   1.928       .  S
C4697      H4704   1.084   1_455  S
C4697      C4698   1.396       .  A
C4697      C4702   1.396       .  A
C4698      C4699   1.411       .  A
C4699      C4700   1.403       .  A
C4699     Br4706   1.916       .  S
C4700      H4705   1.083       .  S
C4700      C4701   1.403       .  A
C4701      C4702   1.418       .  A
C4702     Br4703   1.922   1_455  S
C4707      H4714   1.083       .  S
C4707      C4708   1.407   1_655  A
C4707      C4712   1.403       .  A
C4708      C4709   1.405       .  A
C4709      C4710   1.395       .  A
C4709     Br4716   1.920       .  S
C4710      H4715   1.084       .  S
C4710      C4711   1.404   1_455  A
C4711      C4712   1.405       .  A
C4712     Br4713   1.917       .  S
C4717      H4724   1.083       .  S
C4717      C4718   1.405       .  A
C4717      C4722   1.407       .  A
C4718      C4719   1.404       .  A
C4719      C4720   1.395       .  A
C4719     Br4726   1.920       .  S
C4720      H4725   1.083       .  S
C4720      C4721   1.413       .  A
C4721      C4722   1.417       .  A
C4722     Br4723   1.920       .  S
C4727      H4734   1.084       .  S
C4727      C4728   1.406       .  A
C4727      C4732   1.403       .  A
C4728      C4729   1.401       .  A
C4729      C4730   1.395       .  A
C4729     Br4736   1.919       .  S
C4730      H4735   1.084       .  S
C4730      C4731   1.409       .  A
C4731      C4732   1.409       .  A
C4732     Br4733   1.918       .  S
C4737      H4744   1.083       .  S
C4737      C4738   1.405       .  A
C4737      C4742   1.404       .  A
C4738      C4739   1.413       .  A
C4739      C4740   1.397       .  A
C4739     Br4746   1.923       .  S
C4740      H4745   1.084       .  S
C4740      C4741   1.401       .  A
C4741      C4742   1.409       .  A
C4742     Br4743   1.917       .  S
C4747      H4754   1.083       .  S
C4747      C4748   1.403       .  A
C4747      C4752   1.406       .  A
C4748      C4749   1.406       .  A
C4749      C4750   1.394       .  A
C4749     Br4756   1.922       .  S
C4750      H4755   1.083       .  S
C4750      C4751   1.410       .  A
C4751      C4752   1.417       .  A
C4752     Br4753   1.915       .  S
C4757      H4764   1.084       .  S
C4757      C4758   1.399       .  A
C4757      C4762   1.395       .  A
C4758      C4759   1.411       .  A
C4759      C4760   1.405       .  A
C4759     Br4766   1.918       .  S
C4760      H4765   1.083       .  S
C4760      C4761   1.405       .  A
C4761      C4762   1.416       .  A
C4762     Br4763   1.923   1_455  S
C4767      H4774   1.083       .  S
C4767      C4768   1.402   1_556  A
C4767      C4772   1.402   1_556  A
C4768      C4769   1.408       .  A
C4769      C4770   1.396       .  A
C4769     Br4776   1.922       .  S
C4770      H4775   1.084       .  S
C4770      C4771   1.405       .  A
C4771      C4772   1.411       .  A
C4772     Br4773   1.918   1_554  S
C4777      H4784   1.082       .  S
C4777      C4778   1.407       .  A
C4777      C4782   1.401       .  A
C4778      C4779   1.408       .  A
C4779      C4780   1.393       .  A
C4779     Br4786   1.913       .  S
C4780      H4785   1.081       .  S
C4780      C4781   1.411       .  A
C4781      C4782   1.419       .  A
C4782     Br4783   1.923       .  S
C4787      H4794   1.083       .  S
C4787      C4788   1.405       .  A
C4787      C4792   1.399       .  A
C4788      C4789   1.411       .  A
C4789      C4790   1.391       .  A
C4789     Br4796   1.922   1_554  S
C4790      H4795   1.082   1_554  S
C4790      C4791   1.402       .  A
C4791      C4792   1.409       .  A
C4792     Br4793   1.913       .  S
C4797      H4804   1.081       .  S
C4797      C4798   1.412       .  A
C4797      C4802   1.393       .  A
C4798      C4799   1.418       .  A
C4799      C4800   1.401       .  A
C4799     Br4806   1.921       .  S
C4800      H4805   1.083       .  S
C4800      C4801   1.403       .  A
C4801      C4802   1.403       .  A
C4802     Br4803   1.919   1_556  S
C4807      H4814   1.083       .  S
C4807      C4808   1.401       .  A
C4807      C4812   1.398       .  A
C4808      C4809   1.409       .  A
C4809      C4810   1.400       .  A
C4809     Br4816   1.918       .  S
C4810      H4815   1.083       .  S
C4810      C4811   1.407       .  A
C4811      C4812   1.416       .  A
C4812     Br4813   1.918       .  S
C4817      H4824   1.081       .  S
C4817      C4818   1.399       .  A
C4817      C4822   1.391       .  A
C4818      C4819   1.414       .  A
C4819      C4820   1.399       .  A
C4819     Br4826   1.921   1_655  S
C4820      H4825   1.080       .  S
C4820      C4821   1.409       .  A
C4821      C4822   1.421       .  A
C4822     Br4823   1.922       .  S
C4827      H4834   1.076       .  S
C4827      C4828   1.399       .  A
C4827      C4832   1.385       .  A
C4828      C4829   1.409       .  A
C4829      C4830   1.401   1_455  A
C4829     Br4836   1.917   1_455  S
C4830      H4835   1.083       .  S
C4830      C4831   1.408   1_655  A
C4831      C4832   1.408       .  A
C4832     Br4833   1.918       .  S
C4837      H4844   1.084       .  S
C4837      C4838   1.399       .  A
C4837      C4842   1.387       .  A
C4838      C4839   1.413       .  A
C4839      C4840   1.405       .  A
C4839     Br4846   1.919       .  S
C4840      H4845   1.083       .  S
C4840      C4841   1.406       .  A
C4841      C4842   1.419       .  A
C4842     Br4843   1.926       .  S
C4847      H4854   1.083       .  S
C4847      C4848   1.407       .  A
C4847      C4852   1.398       .  A
C4848      C4849   1.413       .  A
C4849      C4850   1.403       .  A
C4849     Br4856   1.918       .  S
C4850      H4855   1.083       .  S
C4850      C4851   1.402       .  A
C4851      C4852   1.407       .  A
C4852     Br4853   1.921       .  S
C4857      H4864   1.083       .  S
C4857      C4858   1.401       .  A
C4857      C4862   1.405       .  A
C4858      C4859   1.402       .  A
C4859      C4860   1.389       .  A
C4859     Br4866   1.922       .  S
C4860      H4865   1.083       .  S
C4860      C4861   1.410       .  A
C4861      C4862   1.420       .  A
C4862     Br4863   1.921       .  S
C4867      H4874   1.083       .  S
C4867      C4868   1.409   1_565  A
C4867      C4872   1.395       .  A
C4868      C4869   1.412       .  A
C4869      C4870   1.402       .  A
C4869     Br4876   1.919       .  S
C4870      H4875   1.084       .  S
C4870      C4871   1.405   1_545  A
C4871      C4872   1.402       .  A
C4872     Br4873   1.919       .  S
C4877      H4884   1.083   1_455  S
C4877      C4878   1.401       .  A
C4877      C4882   1.401       .  A
C4878      C4879   1.408       .  A
C4879      C4880   1.401       .  A
C4879     Br4886   1.919       .  S
C4880      H4885   1.083       .  S
C4880      C4881   1.405       .  A
C4881      C4882   1.413       .  A
C4882     Br4883   1.919   1_455  S
C4887      H4894   1.083       .  S
C4887      C4888   1.400       .  A
C4887      C4892   1.402       .  A
C4888      C4889   1.407   1_455  A
C4889      C4890   1.399       .  A
C4889     Br4896   1.919       .  S
C4890      H4895   1.083       .  S
C4890      C4891   1.407   1_655  A
C4891      C4892   1.416       .  A
C4892     Br4893   1.919       .  S
C4897      H4904   1.083       .  S
C4897      C4898   1.406   1_545  A
C4897      C4902   1.406       .  A
C4898      C4899   1.402       .  A
C4899      C4900   1.389       .  A
C4899     Br4906   1.922       .  S
C4900      H4905   1.082       .  S
C4900      C4901   1.407   1_565  A
C4901      C4902   1.411       .  A
C4902     Br4903   1.917       .  S
C4907      H4914   1.084       .  S
C4907      C4908   1.404       .  A
C4907      C4912   1.399       .  A
C4908      C4909   1.400       .  A
C4909      C4910   1.397       .  A
C4909     Br4916   1.918       .  S
C4910      H4915   1.084       .  S
C4910      C4911   1.411       .  A
C4911      C4912   1.408       .  A
C4912     Br4913   1.918   1_565  S
C4917      H4924   1.084       .  S
C4917      C4918   1.405       .  A
C4917      C4922   1.402       .  A
C4918      C4919   1.407       .  A
C4919      C4920   1.401       .  A
C4919     Br4926   1.918       .  S
C4920      H4925   1.083       .  S
C4920      C4921   1.404       .  A
C4921      C4922   1.410       .  A
C4922     Br4923   1.920       .  S
C4927      H4934   1.083       .  S
C4927      C4928   1.398       .  A
C4927      C4932   1.397       .  A
C4928      C4929   1.414       .  A
C4929      C4930   1.401       .  A
C4929     Br4936   1.920       .  S
C4930      H4935   1.083       .  S
C4930      C4931   1.401       .  A
C4931      C4932   1.414       .  A
C4932     Br4933   1.921       .  S
C4937      H4944   1.084       .  S
C4937      C4938   1.396       .  A
C4937      C4942   1.396       .  A
C4938      C4939   1.411       .  A
C4939      C4940   1.403       .  A
C4939     Br4946   1.917       .  S
C4940      H4945   1.083       .  S
C4940      C4941   1.403       .  A
C4941      C4942   1.418       .  A
C4942     Br4943   1.924       .  S
C4947      H4954   1.083       .  S
C4947      C4948   1.398       .  A
C4947      C4952   1.383       .  A
C4948      C4949   1.414       .  A
C4949      C4950   1.417   1_565  A
C4949     Br4956   1.915   1_565  S
C4950      H4955   1.083       .  S
C4950      C4951   1.411   1_545  A
C4951      C4952   1.414       .  A
C4952     Br4953   1.922       .  S
C4957      H4964   1.083       .  S
C4957      C4958   1.408       .  A
C4957      C4962   1.400       .  A
C4958      C4959   1.417   1_455  A
C4959      C4960   1.402       .  A
C4959     Br4966   1.921       .  S
C4960      H4965   1.083       .  S
C4960      C4961   1.403   1_655  A
C4961      C4962   1.408       .  A
C4962     Br4963   1.918       .  S
C4967      H4974   1.081       .  S
C4967      C4968   1.411       .  A
C4967      C4972   1.394       .  A
C4968      C4969   1.420       .  A
C4969      C4970   1.397       .  A
C4969     Br4976   1.922       .  S
C4970      H4975   1.082       .  S
C4970      C4971   1.403       .  A
C4971      C4972   1.408       .  A
C4972     Br4973   1.914       .  S
C4977      H4984   1.080       .  S
C4977      C4978   1.415       .  A
C4977      C4982   1.395       .  A
C4978      C4979   1.415       .  A
C4979      C4980   1.394       .  A
C4979     Br4986   1.924       .  S
C4980      H4985   1.079   1_545  S
C4980      C4981   1.404       .  A
C4981      C4982   1.404       .  A
C4982     Br4983   1.918   1_655  S
C4987      H4994   1.080       .  S
C4987      C4988   1.400       .  A
C4987      C4992   1.391       .  A
C4988      C4989   1.402       .  A
C4989      C4990   1.394       .  A
C4989     Br4996   1.914       .  S
C4990      H4995   1.083       .  S
C4990      C4991   1.409       .  A
C4991      C4992   1.413       .  A
C4992     Br4993   1.920       .  S
C4997      H5004   1.082       .  S
C4997      C4998   1.399       .  A
C4997      C5002   1.401       .  A
C4998      C4999   1.409       .  A
C4999      C5000   1.404       .  A
C4999     Br5006   1.919       .  S
C5000      H5005   1.082       .  S
C5000      C5001   1.413       .  A
C5001      C5002   1.421       .  A
C5002     Br5003   1.923   1_455  S
C5007      H5014   1.083       .  S
C5007      C5008   1.405       .  A
C5007      C5012   1.387       .  A
C5008      C5009   1.411   1_565  A
C5009      C5010   1.394       .  A
C5009     Br5016   1.920       .  S
C5010      H5015   1.083       .  S
C5010      C5011   1.402   1_545  A
C5011      C5012   1.406       .  A
C5012     Br5013   1.921       .  S
C5017      H5024   1.084       .  S
C5017      C5018   1.405       .  A
C5017      C5022   1.390       .  A
C5018      C5019   1.415       .  A
C5019      C5020   1.406       .  A
C5019     Br5026   1.915       .  S
C5020      H5025   1.083       .  S
C5020      C5021   1.402       .  A
C5021      C5022   1.407       .  A
C5022     Br5023   1.923       .  S
C5027      H5034   1.083       .  S
C5027      C5028   1.402       .  A
C5027      C5032   1.405       .  A
C5028      C5029   1.405       .  A
C5029      C5030   1.399       .  A
C5029     Br5036   1.918   1_455  S
C5030      H5035   1.083   1_455  S
C5030      C5031   1.408       .  A
C5031      C5032   1.416       .  A
C5032     Br5033   1.920       .  S
C5037      H5044   1.083       .  S
C5037      C5038   1.410       .  A
C5037      C5042   1.399       .  A
C5038      C5039   1.415       .  A
C5039      C5040   1.405       .  A
C5039     Br5046   1.915       .  S
C5040      H5045   1.083       .  S
C5040      C5041   1.404       .  A
C5041      C5042   1.406       .  A
C5042     Br5043   1.921       .  S
C5047      H5054   1.085       .  S
C5047      C5048   1.399       .  A
C5047      C5052   1.386       .  A
C5048      C5049   1.410       .  A
C5049      C5050   1.409       .  A
C5049     Br5056   1.916       .  S
C5050      H5055   1.083       .  S
C5050      C5051   1.411       .  A
C5051      C5052   1.421       .  A
C5052     Br5053   1.929       .  S
C5057      H5064   1.083       .  S
C5057      C5058   1.399       .  A
C5057      C5062   1.399       .  A
C5058      C5059   1.416       .  A
C5059      C5060   1.402       .  A
C5059     Br5066   1.920       .  S
C5060      H5065   1.083       .  S
C5060      C5061   1.398       .  A
C5061      C5062   1.410       .  A
C5062     Br5063   1.918       .  S
C5067      H5074   1.084       .  S
C5067      C5068   1.403       .  A
C5067      C5072   1.401       .  A
C5068      C5069   1.407       .  A
C5069      C5070   1.402       .  A
C5069     Br5076   1.918       .  S
C5070      H5075   1.083       .  S
C5070      C5071   1.406       .  A
C5071      C5072   1.409       .  A
C5072     Br5073   1.916       .  S
C5077      H5084   1.083       .  S
C5077      C5078   1.405       .  A
C5077      C5082   1.403       .  A
C5078      C5079   1.401       .  A
C5079      C5080   1.393       .  A
C5079     Br5086   1.918       .  S
C5080      H5085   1.084       .  S
C5080      C5081   1.406       .  A
C5081      C5082   1.407       .  A
C5082     Br5083   1.917       .  S
C5087      H5094   1.083       .  S
C5087      C5088   1.401       .  A
C5087      C5092   1.402       .  A
C5088      C5089   1.409       .  A
C5089      C5090   1.398       .  A
C5089     Br5096   1.921       .  S
C5090      H5095   1.083       .  S
C5090      C5091   1.405       .  A
C5091      C5092   1.414       .  A
C5092     Br5093   1.919       .  S
C5097      H5104   1.083       .  S
C5097      C5098   1.411       .  A
C5097      C5102   1.404       .  A
C5098      C5099   1.421       .  A
C5099      C5100   1.396       .  A
C5099     Br5106   1.919       .  S
C5100      H5105   1.084       .  S
C5100      C5101   1.396       .  A
C5101      C5102   1.406       .  A
C5102     Br5103   1.917       .  S
C5107      H5114   1.084       .  S
C5107      C5108   1.399       .  A
C5107      C5112   1.391       .  A
C5108      C5109   1.410       .  A
C5109      C5110   1.406       .  A
C5109     Br5116   1.917       .  S
C5110      H5115   1.083       .  S
C5110      C5111   1.409       .  A
C5111      C5112   1.422       .  A
C5112     Br5113   1.927       .  S
C5117      H5124   1.084       .  S
C5117      C5118   1.399       .  A
C5117      C5122   1.388       .  A
C5118      C5119   1.410       .  A
C5119      C5120   1.406       .  A
C5119     Br5126   1.917       .  S
C5120      H5125   1.083       .  S
C5120      C5121   1.410       .  A
C5121      C5122   1.418       .  A
C5122     Br5123   1.919       .  S
C5127      H5134   1.084       .  S
C5127      C5128   1.401       .  A
C5127      C5132   1.399       .  A
C5128      C5129   1.411       .  A
C5129      C5130   1.398       .  A
C5129     Br5136   1.919       .  S
C5130      H5135   1.083       .  S
C5130      C5131   1.402       .  A
C5131      C5132   1.415       .  A
C5132     Br5133   1.922       .  S
C5137      H5144   1.083       .  S
C5137      C5138   1.403       .  A
C5137      C5142   1.405       .  A
C5138      C5139   1.406       .  A
C5139      C5140   1.395       .  A
C5139     Br5146   1.919       .  S
C5140      H5145   1.083       .  S
C5140      C5141   1.409       .  A
C5141      C5142   1.419       .  A
C5142     Br5143   1.921       .  S
C5147      H5154   1.083       .  S
C5147      C5148   1.402       .  A
C5147      C5152   1.403       .  A
C5148      C5149   1.407       .  A
C5149      C5150   1.399       .  A
C5149     Br5156   1.920       .  S
C5150      H5155   1.083       .  S
C5150      C5151   1.406       .  A
C5151      C5152   1.414       .  A
C5152     Br5153   1.919       .  S
C5157      H5164   1.083       .  S
C5157      C5158   1.399       .  A
C5157      C5162   1.398       .  A
C5158      C5159   1.414       .  A
C5159      C5160   1.400       .  A
C5159     Br5166   1.918       .  S
C5160      H5165   1.083       .  S
C5160      C5161   1.399       .  A
C5161      C5162   1.413       .  A
C5162     Br5163   1.920       .  S
C5167      H5174   1.083       .  S
C5167      C5168   1.396       .  A
C5167      C5172   1.398       .  A
C5168      C5169   1.414       .  A
C5169      C5170   1.401       .  A
C5169     Br5176   1.920       .  S
C5170      H5175   1.083       .  S
C5170      C5171   1.400       .  A
C5171      C5172   1.415       .  A
C5172     Br5173   1.921       .  S
C5177      H5184   1.083       .  S
C5177      C5178   1.409       .  A
C5177      C5182   1.398       .  A
C5178      C5179   1.408       .  A
C5179      C5180   1.399       .  A
C5179     Br5186   1.918       .  S
C5180      H5185   1.084       .  S
C5180      C5181   1.403       .  A
C5181      C5182   1.402       .  A
C5182     Br5183   1.918       .  S
C5187      H5194   1.083       .  S
C5187      C5188   1.408       .  A
C5187      C5192   1.405       .  A
C5188      C5189   1.416       .  A
C5189      C5190   1.388       .  A
C5189     Br5196   1.927       .  S
C5190      H5195   1.084       .  S
C5190      C5191   1.400       .  A
C5191      C5192   1.408       .  A
C5192     Br5193   1.916       .  S
C5197      H5204   1.084       .  S
C5197      C5198   1.399       .  A
C5197      C5202   1.398       .  A
C5198      C5199   1.406       .  A
C5199      C5200   1.399       .  A
C5199     Br5206   1.917       .  S
C5200      H5205   1.080       .  S
C5200      C5201   1.413       .  A
C5201      C5202   1.423       .  A
C5202     Br5203   1.926       .  S
C5207      H5214   1.080       .  S
C5207      C5208   1.401       .  A
C5207      C5212   1.388       .  A
C5208      C5209   1.408       .  A
C5209      C5210   1.396       .  A
C5209     Br5216   1.919       .  S
C5210      H5215   1.083       .  S
C5210      C5211   1.406       .  A
C5211      C5212   1.410       .  A
C5212     Br5213   1.922       .  S
C5217      H5224   1.082       .  S
C5217      C5218   1.405       .  A
C5217      C5222   1.402       .  A
C5218      C5219   1.410       .  A
C5219      C5220   1.399       .  A
C5219     Br5226   1.910       .  S
C5220      H5225   1.083       .  S
C5220      C5221   1.404       .  A
C5221      C5222   1.413       .  A
C5222     Br5223   1.920       .  S
C5227      H5234   1.084       .  S
C5227      C5228   1.398       .  A
C5227      C5232   1.396       .  A
C5228      C5229   1.400       .  A
C5229      C5230   1.388       .  A
C5229     Br5236   1.913       .  S
C5230      H5235   1.080       .  S
C5230      C5231   1.412       .  A
C5231      C5232   1.422       .  A
C5232     Br5233   1.919       .  S
C5237      H5244   1.083       .  S
C5237      C5238   1.405       .  A
C5237      C5242   1.402       .  A
C5238      C5239   1.405       .  A
C5239      C5240   1.388       .  A
C5239     Br5246   1.915       .  S
C5240      H5245   1.083       .  S
C5240      C5241   1.405       .  A
C5241      C5242   1.412       .  A
C5242     Br5243   1.918       .  S
C5247      H5254   1.076       .  S
C5247      C5248   1.402       .  A
C5247      C5252   1.399       .  A
C5248      C5249   1.406       .  A
C5249      C5250   1.399       .  A
C5249     Br5256   1.918       .  S
C5250      H5255   1.078       .  S
C5250      C5251   1.417       .  A
C5251      C5252   1.421       .  A
C5252     Br5253   1.923       .  S
C5257      H5264   1.084       .  S
C5257      C5258   1.404       .  A
C5257      C5262   1.395       .  A
C5258      C5259   1.406       .  A
C5259      C5260   1.406       .  A
C5259     Br5266   1.916       .  S
C5260      H5265   1.083       .  S
C5260      C5261   1.412       .  A
C5261      C5262   1.409       .  A
C5262     Br5263   1.921       .  S
C5267      H5274   1.084       .  S
C5267      C5268   1.400       .  A
C5267      C5272   1.399       .  A
C5268      C5269   1.408   1_565  A
C5269      C5270   1.402       .  A
C5269     Br5276   1.918       .  S
C5270      H5275   1.083       .  S
C5270      C5271   1.407   1_545  A
C5271      C5272   1.416       .  A
C5272     Br5273   1.923       .  S
C5277      H5284   1.083       .  S
C5277      C5278   1.412       .  A
C5277      C5282   1.410       .  A
C5278      C5279   1.422       .  A
C5279      C5280   1.390       .  A
C5279     Br5286   1.920       .  S
C5280      H5285   1.085       .  S
C5280      C5281   1.394       .  A
C5281      C5282   1.406       .  A
C5282     Br5283   1.915       .  S
C5287      H5294   1.083       .  S
C5287      C5288   1.399   1_455  A
C5287      C5292   1.398       .  A
C5288      C5289   1.412       .  A
C5289      C5290   1.401       .  A
C5289     Br5296   1.913       .  S
C5290      H5295   1.083       .  S
C5290      C5291   1.400       .  A
C5291      C5292   1.414   1_655  A
C5292     Br5293   1.922       .  S
C5297      H5304   1.083       .  S
C5297      C5298   1.410       .  A
C5297      C5302   1.388       .  A
C5298      C5299   1.421       .  A
C5299      C5300   1.411       .  A
C5299     Br5306   1.919       .  S
C5300      H5305   1.083       .  S
C5300      C5301   1.404       .  A
C5301      C5302   1.405       .  A
C5302     Br5303   1.924   1_565  S
C5307      H5314   1.084       .  S
C5307      C5308   1.399   1_655  A
C5307      C5312   1.402       .  A
C5308      C5309   1.403       .  A
C5309      C5310   1.400       .  A
C5309     Br5316   1.918       .  S
C5310      H5315   1.083       .  S
C5310      C5311   1.411       .  A
C5311      C5312   1.422   1_455  A
C5312     Br5313   1.923       .  S
C5317      H5324   1.084       .  S
C5317      C5318   1.405       .  A
C5317      C5322   1.402       .  A
C5318      C5319   1.411       .  A
C5319      C5320   1.401       .  A
C5319     Br5326   1.918       .  S
C5320      H5325   1.083       .  S
C5320      C5321   1.401       .  A
C5321      C5322   1.408       .  A
C5322     Br5323   1.918       .  S
C5327      H5334   1.084       .  S
C5327      C5328   1.409       .  A
C5327      C5332   1.390       .  A
C5328      C5329   1.413   1_455  A
C5329      C5330   1.405       .  A
C5329     Br5336   1.918       .  S
C5330      H5335   1.083       .  S
C5330      C5331   1.404   1_655  A
C5331      C5332   1.403       .  A
C5332     Br5333   1.922       .  S
C5337      H5344   1.084       .  S
C5337      C5338   1.403   1_556  A
C5337      C5342   1.400       .  A
C5338      C5339   1.412       .  A
C5339      C5340   1.401       .  A
C5339     Br5346   1.919       .  S
C5340      H5345   1.083       .  S
C5340      C5341   1.401       .  A
C5341      C5342   1.409   1_554  A
C5342     Br5343   1.920       .  S
C5347      H5354   1.084       .  S
C5347      C5348   1.405       .  A
C5347      C5352   1.392       .  A
C5348      C5349   1.408       .  A
C5349      C5350   1.401       .  A
C5349     Br5356   1.917       .  S
C5350      H5355   1.083       .  S
C5350      C5351   1.404       .  A
C5351      C5352   1.403       .  A
C5352     Br5353   1.920       .  S
C5357      H5364   1.084       .  S
C5357      C5358   1.406       .  A
C5357      C5362   1.388       .  A
C5358      C5359   1.411   1_554  A
C5359      C5360   1.403       .  A
C5359     Br5366   1.919       .  S
C5360      H5365   1.083       .  S
C5360      C5361   1.404   1_556  A
C5361      C5362   1.404       .  A
C5362     Br5363   1.922       .  S
C5367      H5374   1.083       .  S
C5367      C5368   1.402       .  A
C5367      C5372   1.401       .  A
C5368      C5369   1.410   1_455  A
C5369      C5370   1.401       .  A
C5369     Br5376   1.919       .  S
C5370      H5375   1.083       .  S
C5370      C5371   1.405   1_655  A
C5371      C5372   1.413       .  A
C5372     Br5373   1.919       .  S
