geometry optimzed in LAMMPS
_audit_creation_date              2020-11-30 
_audit_creation_method            'lammps2cif' 
_symmetry_space_group_name_H-M    'P1' 
_symmetry_Int_Tables_number       1 
_symmetry_cell_setting            triclinic 
loop_ 
_symmetry_equiv_pos_as_xyz 
  x,y,z 
_cell_length_a                    42.330663658470414 
_cell_length_b                    42.170723111235326 
_cell_length_c                    45.19889040861106 
_cell_angle_alpha                 89.3954984675488 
_cell_angle_beta                  92.20578438909139 
_cell_angle_gamma                 88.27541828684632 
loop_ 
_atom_site_label 
_atom_site_type_symbol 
_atom_site_fract_x 
_atom_site_fract_y 
_atom_site_fract_z 
_atom_site_charge 
Zr1        Zr  0.50040137  0.50700986  0.43737913     2.17510
O2          O  0.47742575  0.48703344  0.39131096    -0.51790
O3          O  0.53699128  0.54191500  0.41660167    -0.74990
O4          O  0.46984601  0.55411342  0.41556244    -0.81780
O5          O  0.56615880  0.44223269  0.45370181    -0.83520
O6          O  0.43881016  0.57219094  0.45182868    -0.79140
O7          O  0.54385670  0.47391568  0.41689650    -0.90780
O8          O  0.56450544  0.56576838  0.45409993    -0.76740
O9          O  0.50084283  0.55059324  0.47010785    -0.86230
O10         O  0.54546674  0.50073956  0.47058170    -0.85920
O11         O  0.45177739  0.50408268  0.46313098    -0.72680
O12         O  0.49308674  0.45728653  0.46272116    -0.84820
Zr13       Zr  0.49295039  0.49294689  0.55528099     2.26420
Zr14       Zr  0.45433001  0.54684385  0.49726533     2.06270
Zr15       Zr  0.53782085  0.45213660  0.49639643     2.10050
Zr16       Zr  0.54668301  0.54477024  0.50186152     1.78760
O17         O  0.53231501  0.39762357  0.48024760    -0.93620
O18         O  0.54881257  0.60240565  0.50563336    -0.41430
O19         O  0.54116390  0.49591592  0.52921663    -0.78060
O20         O  0.49970723  0.54277692  0.53028860    -0.96750
O21         O  0.44740564  0.49866555  0.52316105    -0.90050
O22         O  0.49077737  0.44918412  0.52264002    -0.92890
C23         C  0.55753825  0.56108087  0.42646529     1.00860
C24         C  0.56490327  0.45339478  0.42750575     1.13790
C25         C  0.44880860  0.57376588  0.42575158     1.04570
O26         O  0.47426207  0.59808139  0.51179636    -0.95050
O27         O  0.42307611  0.54542877  0.53988119    -0.90790
O28         O  0.45768990  0.53269358  0.57748083    -0.83940
C29         C  0.43211548  0.54656364  0.56699404     1.11210
O30         O  0.41786901  0.43597544  0.44640059    -0.97020
Zr31       Zr  0.44572439  0.45547737  0.49046936     1.88940
O32         O  0.45397467  0.45927749  0.57524236    -0.73670
O33         O  0.39925860  0.56649384  0.49304001    -0.52930
O34         O  0.39003067  0.47195080  0.48978073    -0.97610
O35         O  0.45139173  0.39815775  0.48469390    -0.54830
O36         O  0.42751948  0.43444996  0.53763724    -0.74190
C37         C  0.43363057  0.43979855  0.56527372     0.98160
O38         O  0.51594032  0.50865360  0.60301380    -0.63010
O39         O  0.59209924  0.44498605  0.51580723    -0.57810
O40         O  0.52628880  0.44924025  0.57706372    -0.94490
O41         O  0.54790035  0.42117713  0.53972387    -0.92920
O42         O  0.60260480  0.52933392  0.50371776    -0.93270
O43         O  0.57075266  0.56312385  0.54817141    -0.92060
C44         C  0.54273365  0.42578586  0.56685600     1.17000
H45         H  0.56532219  0.50099448  0.46085144     0.32940
H46         H  0.49999739  0.55933157  0.54489528     0.43800
H47         H  0.48959066  0.42924456  0.53314785     0.37320
H48         H  0.43393922  0.50740867  0.44934521     0.33800
H49         H  0.57165599  0.60688148  0.50688522     0.25590
H50         H  0.39896154  0.58864847  0.48551973     0.31530
H51         H  0.37936604  0.45442461  0.49971797     0.37440
H52         H  0.61332240  0.54812399  0.49609343     0.31900
H53         H  0.60257096  0.43015173  0.50218136     0.30770
H54         H  0.55226681  0.38657284  0.48715883     0.32450
H55         H  0.43247627  0.38946374  0.49368505     0.31420
H56         H  0.56270594  0.54891970  0.56355666     0.35420
H57         H  0.53904790  0.50671753  0.60063773     0.28150
H58         H  0.48515634  0.50127552  0.37579092     0.32390
H59         H  0.40056439  0.42310012  0.45375574     0.35240
H60         H  0.60194900  0.46565146  0.51264866     0.27850
H61         H  0.51174510  0.53182209  0.60412269     0.40720
H62         H  0.48964452  0.60316097  0.49675038     0.30770
H63         H  0.54166392  0.61085960  0.48590046     0.38390
H64         H  0.46919432  0.39136082  0.49836386     0.30240
H65         H  0.38903442  0.55411594  0.47702704     0.30300
H66         H  0.45456389  0.49248700  0.39213067     0.30570
Zr67       Zr  0.43128646  0.25175261  0.23318805     2.17510
O68         O  0.38346236  0.27945828  0.24849206    -0.51790
O69         O  0.40791704  0.22096018  0.19579945    -0.74990
O70         O  0.41279438  0.27827925  0.18464586    -0.81780
O71         O  0.44492755  0.18942633  0.29608009    -0.83520
O72         O  0.45583257  0.29769696  0.16369612    -0.79140
O73         O  0.40603579  0.21024612  0.26491236    -0.90780
O74         O  0.44525004  0.18684381  0.17898154    -0.76740
O75         O  0.46712301  0.24888278  0.19433830    -0.86230
O76         O  0.46365619  0.20474291  0.23914165    -0.85920
O77         O  0.46152023  0.29900046  0.23827629    -0.72680
O78         O  0.45961671  0.25734979  0.27998789    -0.84820
Zr79       Zr  0.56003866  0.25263916  0.25128396     2.26420
Zr80       Zr  0.49795830  0.29406454  0.19957281     2.06270
Zr81       Zr  0.49290612  0.21083072  0.28446514     2.10050
Zr82       Zr  0.49814546  0.20190675  0.19951847     1.78760
O83         O  0.48406165  0.21774132  0.33693996    -0.93620
O84         O  0.50372463  0.21043509  0.14662969    -0.41430
O85         O  0.52885967  0.20604308  0.24550423    -0.78060
O86         O  0.53146863  0.24727866  0.20419844    -0.96750
O87         O  0.52693351  0.29898368  0.24495617    -0.90050
O88         O  0.52413774  0.25609697  0.29035494    -0.92890
C89         C  0.41633841  0.19765299  0.18020782     1.00860
C90         C  0.41660532  0.19106865  0.28614963     1.13790
C91         C  0.42664423  0.29142562  0.16252088     1.04570
O92         O  0.52305958  0.29430851  0.15200563    -0.95050
O93         O  0.54260477  0.32453186  0.19726775    -0.90790
O94         O  0.58325861  0.29676136  0.22087530    -0.83940
C95         C  0.57153507  0.32064540  0.20487725     1.11210
O96         O  0.44766043  0.33354272  0.30323083    -0.97020
Zr97       Zr  0.49220015  0.30304798  0.28408497     1.88940
O98         O  0.58424484  0.28875555  0.28473843    -0.73670
O99         O  0.48030999  0.34968975  0.19552876    -0.52930
O100        O  0.49235930  0.35883580  0.26946643    -0.97610
O101        O  0.48529626  0.29668167  0.33713347    -0.54830
O102        O  0.54469407  0.32090144  0.30149658    -0.74190
C103        C  0.57412065  0.31225264  0.29962318     0.98160
O104        O  0.60848284  0.22802883  0.23380611    -0.63010
O105        O  0.49829293  0.15311583  0.28452234    -0.57810
O106        O  0.57969760  0.21699121  0.29503827    -0.94490
O107        O  0.53721411  0.19254756  0.31307234    -0.92920
O108        O  0.49704587  0.14537277  0.21082245    -0.93270
O109        O  0.54225061  0.17113913  0.18029142    -0.92060
C110        C  0.56649640  0.19795353  0.31376805     1.17000
H111        H  0.45155641  0.18570861  0.23894725     0.32940
H112        H  0.54650521  0.24685744  0.18865779     0.43800
H113        H  0.53502417  0.25609785  0.30951924     0.37320
H114        H  0.44772431  0.31751417  0.23536957     0.33800
H115        H  0.49901857  0.18976360  0.13754840     0.25590
H116        H  0.48747604  0.35688160  0.17603369     0.31530
H117        H  0.50448207  0.36934289  0.28556018     0.37440
H118        H  0.48561738  0.13610465  0.19361570     0.31900
H119        H  0.49166664  0.14623504  0.30430660     0.30770
H120        H  0.48583583  0.19608126  0.34565476     0.32450
H121        H  0.49242640  0.31672227  0.34599973     0.31420
H122        H  0.56129270  0.18084692  0.18928120     0.35420
H123        H  0.60524227  0.20495545  0.23575757     0.28150
H124        H  0.36706337  0.27386686  0.23338842     0.32390
H125        H  0.45691548  0.35097522  0.31488154     0.35240
H126        H  0.48143536  0.14584497  0.27064159     0.27850
H127        H  0.60749312  0.23217241  0.21218032     0.40720
H128        H  0.52228621  0.27218445  0.14502609     0.30770
H129        H  0.48548311  0.22452571  0.14041459     0.38390
H130        H  0.50141196  0.28051921  0.34402428     0.30240
H131        H  0.45696661  0.34977274  0.19310877     0.30300
H132        H  0.38727502  0.30214116  0.24456820     0.30570
C133        C  0.79892698  0.82782804  0.99299909     0.02670
C134        C  0.81239205  0.79978910  0.98130916    -0.13470
C135        C  0.79870795  0.78561406  0.95595564     0.00180
C136        C  0.77083190  0.79907226  0.94302927    -0.12000
C137        C  0.75772983  0.82766912  0.95351778     0.02670
C138        C  0.77157281  0.84172954  0.97878915    -0.11420
H139        H  0.83460330  0.79017427  0.99078699     0.08260
H140        H  0.76086279  0.78882349  0.92297145     0.05790
H141        H  0.76234914  0.86440611  0.98621568     0.05640
C142        C  0.95022208  0.96905140  0.99286093     0.02670
C143        C  0.97587394  0.95529154  0.97804645    -0.13470
C144        C  0.98761581  0.96928975  0.95239947     0.00180
C145        C  0.97242685  0.99673364  0.94064913    -0.12000
C146        C  0.94595197  0.00989752  0.95394851     0.02670
C147        C  0.93730714  0.99812944  0.98145877    -0.11420
H148        H  0.98503969  0.93205639  0.98416133     0.08260
H149        H  0.97856852  0.00547400  0.91902369     0.05790
H150        H  0.91743588  0.00940425  0.99194433     0.05640
C151        C  0.97999319  0.81777459  0.81308765     0.02670
C152        C  0.96882166  0.82800514  0.78492834    -0.13470
C153        C  0.94225978  0.81479828  0.77119399     0.00180
C154        C  0.92784247  0.78914588  0.78466649    -0.12000
C155        C  0.93714276  0.77882363  0.81360397     0.02670
C156        C  0.96346806  0.79364573  0.82784088    -0.11420
H157        H  0.97966714  0.84794315  0.77437149     0.08260
H158        H  0.90780372  0.77860924  0.77330976     0.05790
H159        H  0.97042363  0.78724947  0.85046999     0.05640
C160        C  0.07612633  0.89807415  0.87474692    -0.02940
C161        C  0.87488245  0.90111273  0.08268999    -0.02940
C162        C  0.80514541  0.98625688  0.79818957     0.02670
C163        C  0.81643250  0.96609210  0.77604241    -0.13470
C164        C  0.79758166  0.94237649  0.76325041     0.00180
C165        C  0.76904873  0.93539997  0.77732244    -0.12000
C166        C  0.76158631  0.95016009  0.80441018     0.02670
C167        C  0.77975628  0.97530799  0.81398837    -0.11420
H168        H  0.83918700  0.96886654  0.76720276     0.08260
H169        H  0.75348168  0.91786062  0.76808583     0.05790
H170        H  0.77321459  0.98732917  0.83391265     0.05640
C171        C  0.87408910  0.87906468  0.66868331    -0.02940
C172        C  0.85933101  0.68695305  0.88011712    -0.02940
C173        C  0.66153228  0.89541922  0.87484022    -0.02940
C174        C  0.86591736  0.08693465  0.86789504    -0.02940
Zr175      Zr  0.24598612  0.50406715  0.30474905     2.17510
O176        O  0.27557193  0.48071739  0.34721634    -0.51790
O177        O  0.21120919  0.53780067  0.33191645    -0.74990
O178        O  0.27705714  0.55032951  0.32066283    -0.81780
O179        O  0.17291840  0.45356923  0.29255883    -0.83520
O180        O  0.31593721  0.55349282  0.28838991    -0.79140
O181        O  0.20327703  0.47475982  0.32951323    -0.90780
O182        O  0.18593649  0.56832494  0.29680760    -0.76740
O183        O  0.24800461  0.54977420  0.27353727    -0.86230
O184        O  0.19829822  0.50762917  0.27539211    -0.85920
O185        O  0.29101353  0.49503201  0.27405016    -0.72680
O186        O  0.24687589  0.45621180  0.27597483    -0.84820
Zr187      Zr  0.24071329  0.49693252  0.18464383     2.26420
Zr188      Zr  0.29085705  0.54041467  0.24198473     2.06270
Zr189      Zr  0.19835537  0.46060202  0.24745241     2.10050
Zr190      Zr  0.19958551  0.55335332  0.24577061     1.78760
O191        O  0.21126197  0.40560787  0.26154475    -0.93620
O192        O  0.20675384  0.61035007  0.24927121    -0.41430
O193        O  0.19675475  0.50634623  0.21588179    -0.78060
O194        O  0.24258287  0.54494472  0.21308353    -0.96750
O195        O  0.28945071  0.49462625  0.21238887    -0.90050
O196        O  0.24164997  0.45160089  0.21658185    -0.92890
C197        C  0.19119672  0.55982507  0.32416396     1.00860
C198        C  0.17863482  0.45991639  0.31960087     1.13790
C199        C  0.30231299  0.56303027  0.31132633     1.04570
O200        O  0.28052522  0.59702313  0.23375998    -0.95050
O201        O  0.31116891  0.55146787  0.19500026    -0.90790
O202        O  0.28125625  0.52730297  0.15927152    -0.83940
C203        C  0.30447308  0.54453990  0.16817431     1.11210
O204        O  0.32105985  0.42075252  0.28222670    -0.97020
Zr205      Zr  0.29050541  0.44925366  0.24289413     1.88940
O206        O  0.27190306  0.46123046  0.15625641    -0.73670
O207        O  0.34832555  0.53630663  0.23790637    -0.52930
O208        O  0.34677136  0.45972948  0.24150465    -0.97610
O209        O  0.28159146  0.39226472  0.24350357    -0.54830
O210        O  0.30415519  0.43642602  0.19089229    -0.74190
C211        C  0.29491663  0.44221091  0.16355097     0.98160
O212        O  0.20987255  0.52141754  0.14349153    -0.63010
O213        O  0.14107975  0.45837365  0.23936908    -0.57810
O214        O  0.20965353  0.45123215  0.16749989    -0.94490
O215        O  0.17529169  0.44120195  0.20281892    -0.92920
O216        O  0.14258177  0.54658419  0.24361818    -0.93270
O217        O  0.17682061  0.58460873  0.20414820    -0.92060
C218        C  0.18789310  0.43443859  0.17861092     1.17000
H219        H  0.17956873  0.50987459  0.28673487     0.32940
H220        H  0.24317613  0.56284116  0.19961405     0.43800
H221        H  0.24065873  0.43139669  0.20690227     0.37320
H222        H  0.31014073  0.49388598  0.28643326     0.33800
H223        H  0.18531241  0.61949392  0.25229735     0.25590
H224        H  0.35600106  0.55804971  0.23549032     0.31530
H225        H  0.35521834  0.44458403  0.22697251     0.37440
H226        H  0.13318029  0.56829105  0.24140437     0.31900
H227        H  0.13372289  0.44138164  0.25246807     0.30770
H228        H  0.19861932  0.40096218  0.27896395     0.32450
H229        H  0.30245501  0.38192239  0.24033883     0.31420
H230        H  0.17510752  0.56933982  0.18771585     0.35420
H231        H  0.18759737  0.51902351  0.14883568     0.28150
H232        H  0.26698116  0.49182934  0.36448444     0.32390
H233        H  0.33845056  0.40919189  0.27249634     0.35240
H234        H  0.13259952  0.47831314  0.24780747     0.27850
H235        H  0.21351495  0.54440194  0.14542105     0.40720
H236        H  0.27103566  0.60454866  0.25217683     0.30770
H237        H  0.21815875  0.61320938  0.26854938     0.38390
H238        H  0.26906820  0.38793547  0.22513755     0.30240
H239        H  0.35726614  0.52874788  0.25736365     0.30300
H240        H  0.29719367  0.48874563  0.34565142     0.30570
Zr241      Zr  0.24736728  0.25199565  0.55662539     2.17510
O242        O  0.22602786  0.22677189  0.59990081    -0.51790
O243        O  0.28021761  0.28897447  0.58132493    -0.74990
O244        O  0.29374181  0.22153047  0.57953902    -0.81780
O245        O  0.18582329  0.32019038  0.54036761    -0.83520
O246        O  0.31678829  0.19491909  0.54211330    -0.79140
O247        O  0.21436794  0.29555206  0.57813881    -0.90780
O248        O  0.31110604  0.30968873  0.54651610    -0.76740
O249        O  0.29217000  0.24966966  0.52646189    -0.86230
O250        O  0.24633360  0.29780027  0.52562422    -0.85920
O251        O  0.24205901  0.20422517  0.52801812    -0.72680
O252        O  0.19879611  0.24866297  0.52738057    -0.84820
Zr253      Zr  0.23781394  0.24912926  0.43711034     2.26420
Zr254      Zr  0.28670805  0.20393702  0.49716855     2.06270
Zr255      Zr  0.19881560  0.29483568  0.49658152     2.10050
Zr256      Zr  0.29136061  0.29586668  0.49651462     1.78760
O257        O  0.14228377  0.29500851  0.50471898    -0.93620
O258        O  0.34858024  0.28734438  0.49730842    -0.41430
O259        O  0.24337773  0.29609606  0.46594559    -0.78060
O260        O  0.28694116  0.24995106  0.46585322    -0.96750
O261        O  0.23973581  0.20256799  0.46717365    -0.90050
O262        O  0.19305835  0.24926119  0.46712570    -0.92890
C263        C  0.30293149  0.30591736  0.57350931     1.00860
C264        C  0.19475034  0.31733119  0.56730337     1.13790
C265        C  0.31562874  0.20314003  0.56912398     1.04570
O266        O  0.34223055  0.20262783  0.48473936    -0.95050
O267        O  0.29396973  0.17588895  0.45293764    -0.90790
O268        O  0.26838763  0.20475580  0.41592356    -0.83940
C269        C  0.28561722  0.18084837  0.42594901     1.11210
O270        O  0.16993928  0.17584463  0.53697735    -0.97020
Zr271      Zr  0.19490534  0.20255085  0.49621144     1.88940
O272        O  0.20566227  0.21298391  0.41115296    -0.73670
O273        O  0.28538527  0.14677544  0.50492253    -0.52930
O274        O  0.20911423  0.14614026  0.49591179    -0.97610
O275        O  0.13756620  0.21024821  0.49674544    -0.54830
O276        O  0.17678474  0.18803066  0.44511997    -0.74190
C277        C  0.18439053  0.19395700  0.41812002     0.98160
O278        O  0.26112921  0.27367254  0.39447973    -0.63010
O279        O  0.20261182  0.35196393  0.49006620    -0.57810
O280        O  0.19405241  0.28372003  0.41406571    -0.94490
O281        O  0.17054088  0.30834872  0.45232676    -0.92920
O282        O  0.28164389  0.35308879  0.49525291    -0.93270
O283        O  0.31734598  0.31862107  0.45442383    -0.92060
C284        C  0.17266749  0.30244870  0.42498399     1.17000
H285        H  0.24684479  0.31723846  0.53666779     0.32940
H286        H  0.30456287  0.24856191  0.45291203     0.43800
H287        H  0.17337938  0.24963672  0.45561858     0.37320
H288        H  0.24313038  0.18607679  0.54126869     0.33800
H289        H  0.35722249  0.30792843  0.50345799     0.25590
H290        H  0.30748638  0.14008243  0.51033857     0.31530
H291        H  0.18892613  0.13531464  0.49237403     0.37440
H292        H  0.30263684  0.36225334  0.49270805     0.31900
H293        H  0.18164071  0.36089225  0.49519318     0.30770
H294        H  0.13477125  0.31718433  0.50081567     0.32450
H295        H  0.12905084  0.19482449  0.48236620     0.31420
H296        H  0.30111432  0.31861115  0.43805715     0.35420
H297        H  0.25507573  0.29646087  0.39581227     0.28150
H298        H  0.23893995  0.23473316  0.61681981     0.32390
H299        H  0.15584650  0.16007061  0.52781521     0.35240
H300        H  0.21719925  0.35887984  0.50621410     0.27850
H301        H  0.28415698  0.27275447  0.39927591     0.40720
H302        H  0.35270882  0.21671507  0.49921238     0.30770
H303        H  0.35337829  0.27303686  0.51450588     0.38390
H304        H  0.13296081  0.23122590  0.48727326     0.30240
H305        H  0.27347610  0.14359381  0.52304289     0.30300
H306        H  0.23262297  0.20413407  0.59842686     0.30570
Zr307      Zr  0.42768773  0.76042945  0.74348521     2.17510
O308        O  0.37839415  0.78495153  0.75908045    -0.51790
O309        O  0.40308502  0.72678336  0.70961346    -0.74990
O310        O  0.41000470  0.78895330  0.69532192    -0.81780
O311        O  0.44701245  0.68838389  0.79966661    -0.83520
O312        O  0.45019835  0.81769048  0.67821746    -0.79140
O313        O  0.40679418  0.71529002  0.77426424    -0.90780
O314        O  0.44504697  0.70014585  0.69028259    -0.76740
O315        O  0.46460965  0.76319369  0.70530026    -0.86230
O316        O  0.46335573  0.71559653  0.74868958    -0.85920
O317        O  0.45366640  0.80972985  0.75050609    -0.72680
O318        O  0.45313796  0.76404578  0.79172558    -0.84820
Zr319      Zr  0.55323320  0.77020774  0.76703021     2.26420
Zr320      Zr  0.49275262  0.81020927  0.71361792     2.06270
Zr321      Zr  0.49050948  0.72019919  0.79564167     2.10050
Zr322      Zr  0.49798857  0.71783695  0.70987628     1.78760
O323        O  0.46896321  0.72223240  0.84478309    -0.93620
O324        O  0.50154923  0.72628825  0.65677577    -0.41430
O325        O  0.52703240  0.72130730  0.75708485    -0.78060
O326        O  0.52806312  0.76501135  0.71827504    -0.96750
O327        O  0.51767567  0.81496696  0.76107786    -0.90050
O328        O  0.51548492  0.76862369  0.80441313    -0.92890
C329        C  0.41490105  0.70586822  0.69307091     1.00860
C330        C  0.41838979  0.69183839  0.79098585     1.13790
C331        C  0.42229225  0.80738289  0.67557453     1.04570
O332        O  0.51483074  0.81376395  0.66478154    -0.95050
O333        O  0.54133049  0.83621704  0.71024736    -0.90790
O334        O  0.57986396  0.81294462  0.74000634    -0.83940
C335        C  0.56959244  0.83440576  0.72100614     1.11210
O336        O  0.42879971  0.83413766  0.81368273    -0.97020
Zr337      Zr  0.47975992  0.81293689  0.79828547     1.88940
O338        O  0.56902275  0.80894413  0.80248408    -0.73670
O339        O  0.47616795  0.86607863  0.71382558    -0.52930
O340        O  0.47619529  0.86937808  0.78613476    -0.97610
O341        O  0.47180283  0.80657442  0.85116437    -0.54830
O342        O  0.52661745  0.83395709  0.82261493    -0.74190
C343        C  0.55639547  0.82883094  0.82003124     0.98160
O344        O  0.60423792  0.74809098  0.75307145    -0.63010
O345        O  0.51018436  0.66526303  0.79658116    -0.57810
O346        O  0.57500001  0.73825461  0.81112974    -0.94490
O347        O  0.53527595  0.70911326  0.82813070    -0.92920
O348        O  0.50187418  0.66074539  0.71867446    -0.93270
O349        O  0.54470545  0.69284461  0.68922755    -0.92060
C350        C  0.56358571  0.71856608  0.83007940     1.17000
H351        H  0.45309339  0.69561468  0.74647217     0.32940
H352        H  0.54404401  0.76619685  0.70364517     0.43800
H353        H  0.52507810  0.76921103  0.82410238     0.37320
H354        H  0.43850876  0.82715611  0.74758176     0.33800
H355        H  0.49697357  0.70542320  0.64799682     0.25590
H356        H  0.48114970  0.87407556  0.69391031     0.31530
H357        H  0.47810062  0.88015893  0.80544168     0.37440
H358        H  0.48884416  0.65157042  0.70243429     0.31900
H359        H  0.50075303  0.65543028  0.81403681     0.30770
H360        H  0.47230723  0.70047283  0.85300298     0.32450
H361        H  0.47955048  0.82629794  0.86022982     0.31420
H362        H  0.56264159  0.70103934  0.70128077     0.35420
H363        H  0.60242197  0.72490214  0.75582683     0.28150
H364        H  0.36190571  0.77554491  0.74606563     0.32390
H365        H  0.43361389  0.85228872  0.82664305     0.35240
H366        H  0.49944130  0.65536297  0.77934620     0.27850
H367        H  0.60427516  0.75113576  0.73132221     0.40720
H368        H  0.52058609  0.79164825  0.65959048     0.30770
H369        H  0.48263849  0.73969974  0.65122152     0.38390
H370        H  0.48737938  0.78988723  0.85808728     0.30240
H371        H  0.45277657  0.86657577  0.71372094     0.30300
H372        H  0.37917819  0.80726996  0.75219197     0.30570
Zr373      Zr  0.22658763  0.81198222  0.00323337     2.17510
O374        O  0.24576414  0.86404144  0.99038305    -0.51790
O375        O  0.18978158  0.83103196  0.03878812    -0.74990
O376        O  0.18629565  0.83832346  0.96992236    -0.81780
O377        O  0.29391486  0.79045054  0.06053388    -0.83520
O378        O  0.15322624  0.79875428  0.96706201    -0.79140
O379        O  0.26482743  0.83210770  0.04020845    -0.90780
O380        O  0.16271484  0.79057147  0.05885169    -0.76740
O381        O  0.18136071  0.78024220  0.99819539    -0.86230
O382        O  0.22572933  0.77452528  0.04253651    -0.85920
O383        O  0.23322287  0.78799077  0.95568211    -0.72680
O384        O  0.27420477  0.78075589  0.99910429    -0.84820
Zr385      Zr  0.23402282  0.68592065  0.98557345     2.26420
Zr386      Zr  0.18711671  0.75663158  0.95168579     2.06270
Zr387      Zr  0.27289434  0.74387509  0.03926521     2.10050
Zr388      Zr  0.18110531  0.74187539  0.03629483     1.78760
O389        O  0.33040878  0.74056567  0.03580233    -0.93620
O390        O  0.12477177  0.74462564  0.02290110    -0.41430
O391        O  0.22856569  0.71041318  0.03288985    -0.78060
O392        O  0.18545104  0.71630687  0.98931226    -0.96750
O393        O  0.23357709  0.72445842  0.94704513    -0.90050
O394        O  0.27933975  0.71781324  0.99316467    -0.92890
C395        C  0.16936676  0.81988375  0.05603916     1.00860
C396        C  0.28619142  0.81986693  0.05841761     1.13790
C397        C  0.15908244  0.82758424  0.96236270     1.04570
O398        O  0.13481625  0.74063264  0.93470048    -0.95050
O399        O  0.17803179  0.71582504  0.91819720    -0.90790
O400        O  0.20875754  0.67402485  0.93541528    -0.83940
C401        C  0.19021128  0.68831627  0.91538273     1.11210
O402        O  0.30488259  0.80061627  0.93389869    -0.97020
Zr403      Zr  0.27959905  0.75369757  0.95281699     1.88940
O404        O  0.27230308  0.66032044  0.95712130    -0.73670
O405        O  0.18670286  0.78809980  0.90595513    -0.52930
O406        O  0.26959153  0.75768304  0.89943238    -0.97610
O407        O  0.33675685  0.75455416  0.96158409    -0.54830
O408        O  0.29658194  0.70088885  0.93441407    -0.74190
C409        C  0.29160783  0.67109468  0.93898409     0.98160
O410        O  0.20809276  0.63735845  0.99885683    -0.63010
O411        O  0.26589646  0.74661876  0.09287886    -0.57810
O412        O  0.27782949  0.66125228  0.01791524    -0.94490
O413        O  0.27476509  0.69085107  0.05807518    -0.92920
O414        O  0.18702836  0.73174270  0.08936305    -0.93270
O415        O  0.15501246  0.69428710  0.05218187    -0.92060
C416        C  0.28836617  0.66895782  0.04407595     1.17000
H417        H  0.22528719  0.78517730  0.06128201     0.32940
H418        H  0.16762192  0.70295077  0.98556699     0.43800
H419        H  0.29890148  0.70548066  0.99327277     0.37320
H420        H  0.23354332  0.80445550  0.94071500     0.33800
H421        H  0.11430953  0.74844690  0.04181272     0.25590
H422        H  0.18551876  0.81062098  0.91175432     0.31530
H423        H  0.28773852  0.74622620  0.89079632     0.37440
H424        H  0.16638195  0.73830864  0.09728874     0.31900
H425        H  0.25822192  0.76820101  0.09792611     0.30770
H426        H  0.33575408  0.71895720  0.02888917     0.32450
H427        H  0.34567003  0.74593776  0.94328675     0.31420
H428        H  0.16713692  0.67662185  0.04326713     0.35420
H429        H  0.20951295  0.63671409  0.02077265     0.28150
H430        H  0.23025050  0.87928709  0.99857662     0.32390
H431        H  0.31677168  0.79345215  0.91661827     0.35240
H432        H  0.24800426  0.73280618  0.09673978     0.27850
H433        H  0.18540727  0.64180593  0.99383478     0.40720
H434        H  0.12584471  0.73037821  0.95217418     0.30770
H435        H  0.12144449  0.76480753  0.01167256     0.38390
H436        H  0.34175027  0.73797116  0.97680909     0.30240
H437        H  0.20812796  0.78510774  0.89822322     0.30300
H438        H  0.24238474  0.86596949  0.96863128     0.30570
Zr439      Zr  0.99316191  0.51969651  0.93397238     2.17510
O440        O  0.96936709  0.50037639  0.88797106    -0.51790
O441        O  0.02920576  0.55455588  0.91123857    -0.74990
O442        O  0.96081874  0.56498892  0.91388626    -0.81780
O443        O  0.05851791  0.45287690  0.94692559    -0.83520
O444        O  0.95955798  0.59743329  0.95299485    -0.79140
O445        O  0.03367822  0.48480440  0.91184632    -0.90780
O446        O  0.06413033  0.56981607  0.94732042    -0.76740
O447        O  0.99802583  0.56329531  0.96644952    -0.86230
O448        O  0.03887211  0.51069973  0.96533860    -0.85920
O449        O  0.94518604  0.52031498  0.96137077    -0.72680
O450        O  0.98305597  0.47044277  0.95882532    -0.84820
Zr451      Zr  0.98945342  0.50605012  0.05084611     2.26420
Zr452      Zr  0.95188188  0.56375860  0.99473241     2.06270
Zr453      Zr  0.02942353  0.46194727  0.98994767     2.10050
Zr454      Zr  0.04409720  0.55444452  0.99648548     1.78760
O455        O  0.01973001  0.40981225  0.96944862    -0.93620
O456        O  0.03886884  0.61199910  0.99908118    -0.41430
O457        O  0.03661163  0.50541177  0.02307098    -0.78060
O458        O  0.99804091  0.55583563  0.02643488    -0.96750
O459        O  0.94360773  0.51569022  0.02023937    -0.90050
O460        O  0.98338679  0.46259736  0.01834802    -0.92890
C461        C  0.05451638  0.56813275  0.91980899     1.00860
C462        C  0.05560717  0.46450867  0.92086810     1.13790
C463        C  0.95292612  0.59148090  0.92596630     1.04570
O464        O  0.95398952  0.61671983  0.01553921    -0.95050
O465        O  0.92180950  0.56781420  0.03849168    -0.90790
O466        O  0.94629165  0.53644533  0.07423930    -0.83940
C467        C  0.92401349  0.55608973  0.06472668     1.11210
O468        O  0.90620118  0.45564485  0.94536294    -0.97020
Zr469      Zr  0.93705987  0.47203108  0.98897426     1.88940
O470        O  0.95171820  0.47538144  0.07450313    -0.73670
O471        O  0.89783605  0.57635316  0.97667842    -0.52930
O472        O  0.88231114  0.49092507  0.99128173    -0.97610
O473        O  0.93758885  0.41461652  0.98280720    -0.54830
O474        O  0.92247770  0.45134568  0.03850666    -0.74190
C475        C  0.93069187  0.45619030  0.06602389     0.98160
O476        O  0.01551208  0.52500953  0.09593216    -0.63010
O477        O  0.08378634  0.45181546  0.00806927    -0.57810
O478        O  0.02102281  0.45877168  0.06911684    -0.94490
O479        O  0.03530262  0.42704461  0.03109198    -0.92920
O480        O  0.10037727  0.54045324  0.99924553    -0.93270
O481        O  0.07276640  0.57325421  0.04029356    -0.92060
C482        C  0.03303859  0.43284974  0.05843700     1.17000
H483        H  0.05838347  0.51015710  0.95507586     0.32940
H484        H  0.99945505  0.57263097  0.04075610     0.43800
H485        H  0.98059860  0.44284677  0.02871228     0.37320
H486        H  0.92722364  0.52438959  0.94790902     0.33800
H487        H  0.06064779  0.61951875  0.99729738     0.25590
H488        H  0.89592811  0.59979795  0.97725570     0.31530
H489        H  0.87030445  0.47178458  0.99572844     0.37440
H490        H  0.11071636  0.55891721  0.99052195     0.31900
H491        H  0.09261502  0.43558485  0.99476704     0.30770
H492        H  0.03864129  0.39666784  0.97570955     0.32450
H493        H  0.92051386  0.40710808  0.99525404     0.31420
H494        H  0.06480675  0.56055417  0.05682127     0.35420
H495        H  0.03817295  0.51940545  0.09372388     0.28150
H496        H  0.97251270  0.51741892  0.87323268     0.32390
H497        H  0.88941952  0.44215250  0.95281738     0.35240
H498        H  0.09488720  0.47143894  0.00332112     0.27850
H499        H  0.01422920  0.54841908  0.09394338     0.40720
H500        H  0.97329747  0.62579990  0.00766566     0.30770
H501        H  0.02772882  0.61863240  0.98026505     0.38390
H502        H  0.95735797  0.40665940  0.99310828     0.30240
H503        H  0.89712153  0.57137130  0.95534517     0.30300
H504        H  0.94634758  0.50109055  0.89113973     0.30570
Zr505      Zr  0.25083719  0.99947515  0.68095760     2.17510
O506        O  0.22575931  0.01853726  0.63451452    -0.51790
O507        O  0.29028498  0.96638638  0.65816331    -0.74990
O508        O  0.29031557  0.04031137  0.66303050    -0.81780
O509        O  0.18010808  0.94586874  0.69605928    -0.83520
O510        O  0.32542973  0.04391701  0.70115031    -0.79140
O511        O  0.21754638  0.95232411  0.66294667    -0.90780
O512        O  0.31492072  0.93564803  0.69444784    -0.76740
O513        O  0.29682107  0.99908027  0.71280746    -0.86230
O514        O  0.25018901  0.95421615  0.71317969    -0.85920
O515        O  0.24637188  0.04755406  0.70981208    -0.72680
O516        O  0.20444143  0.00724538  0.71003244    -0.84820
Zr517      Zr  0.24777022  0.00730979  0.80233683     2.26420
Zr518      Zr  0.29278157  0.04539007  0.74208620     2.06270
Zr519      Zr  0.20438276  0.96167895  0.74171242     2.10050
Zr520      Zr  0.29687860  0.95354169  0.74346227     1.78760
O521        O  0.14716944  0.96656733  0.73284807    -0.93620
O522        O  0.35376157  0.96103605  0.74515489    -0.41430
O523        O  0.25093403  0.95945299  0.77350813    -0.78060
O524        O  0.29443926  0.00014869  0.77409215    -0.96750
O525        O  0.24789122  0.05269503  0.77107912    -0.90050
O526        O  0.20144420  0.00809406  0.77059095    -0.92890
C527        C  0.30978763  0.94413915  0.66704263     1.00860
C528        C  0.19325096  0.93714209  0.67270746     1.13790
C529        C  0.31661123  0.05113770  0.67489078     1.04570
O530        O  0.34870180  0.04617196  0.75667076    -0.95050
O531        O  0.30807510  0.07271251  0.78529169    -0.90790
O532        O  0.28096260  0.05153913  0.82288908    -0.83940
C533        C  0.30032053  0.07182519  0.81214847     1.11210
O534        O  0.17518396  0.08290518  0.69912233    -0.97020
Zr535      Zr  0.20116825  0.05380282  0.74069953     1.88940
O536        O  0.21400642  0.04391547  0.82693813    -0.73670
O537        O  0.28640503  0.10198651  0.73028136    -0.52930
O538        O  0.21095533  0.11027020  0.74481903    -0.97610
O539        O  0.14417773  0.04752859  0.73519687    -0.54830
O540        O  0.18178023  0.06668847  0.79086979    -0.74190
C541        C  0.19024932  0.06147313  0.81845303     0.98160
O542        O  0.27311627  0.98231347  0.84622289    -0.63010
O543        O  0.21376385  0.90477990  0.74932493    -0.57810
O544        O  0.20394750  0.97653895  0.82364070    -0.94490
O545        O  0.17847182  0.95049340  0.78635300    -0.92920
O546        O  0.28703476  0.89694622  0.74452488    -0.93270
O547        O  0.32343784  0.92580445  0.78535843    -0.92060
C548        C  0.18127808  0.95922854  0.81318935     1.17000
H549        H  0.25006363  0.93416095  0.70309923     0.32940
H550        H  0.31296760  0.00044971  0.78724095     0.43800
H551        H  0.18209422  0.00912199  0.78111160     0.37320
H552        H  0.24625839  0.06532506  0.69620449     0.33800
H553        H  0.36314173  0.93993170  0.74062050     0.25590
H554        H  0.27518693  0.10461581  0.71079766     0.31530
H555        H  0.21780986  0.11702290  0.72509023     0.37440
H556        H  0.30473676  0.88701854  0.73389814     0.31900
H557        H  0.19492476  0.89706025  0.75914962     0.30770
H558        H  0.13731499  0.95229933  0.74708481     0.32450
H559        H  0.13486105  0.06380305  0.74817407     0.31420
H560        H  0.31436482  0.93580452  0.80297796     0.35420
H561        H  0.27007273  0.95933640  0.84341403     0.28150
H562        H  0.24102653  0.01253962  0.61933010     0.32390
H563        H  0.16182889  0.09968756  0.70800953     0.35240
H564        H  0.21282162  0.89547676  0.72930966     0.27850
H565        H  0.29601601  0.98503824  0.84372834     0.40720
H566        H  0.35590468  0.02365162  0.75774248     0.30770
H567        H  0.35755167  0.97414844  0.72740982     0.38390
H568        H  0.14017901  0.02714744  0.74514999     0.30240
H569        H  0.27177682  0.11068817  0.74489733     0.30300
H570        H  0.22667307  0.04193335  0.63558942     0.30570
Zr571      Zr  0.74918441  0.75852401  0.55821726     2.17510
O572        O  0.73203251  0.73368819  0.60348867    -0.51790
O573        O  0.78394497  0.79608047  0.58078975    -0.74990
O574        O  0.79565251  0.72753742  0.57822739    -0.81780
O575        O  0.68003964  0.81862581  0.54833146    -0.83520
O576        O  0.82296097  0.70843343  0.53945327    -0.79140
O577        O  0.71504046  0.79743269  0.58325883    -0.90780
O578        O  0.80094170  0.82743488  0.54387277    -0.76740
O579        O  0.79096292  0.76362805  0.52507512    -0.86230
O580        O  0.73767605  0.80370356  0.52733548    -0.85920
O581        O  0.74932641  0.71023831  0.53019430    -0.72680
O582        O  0.69943200  0.74747367  0.53339206    -0.84820
Zr583      Zr  0.72849431  0.75080822  0.43983322     2.26420
Zr584      Zr  0.79020762  0.71721804  0.49584553     2.06270
Zr585      Zr  0.68875696  0.79313181  0.50248567     2.10050
Zr586      Zr  0.77917433  0.80887880  0.49502778     1.78760
O587        O  0.63731476  0.77932482  0.52021936    -0.93620
O588        O  0.83556275  0.80415957  0.48643860    -0.41430
O589        O  0.72979075  0.79916547  0.46814104    -0.78060
O590        O  0.77852782  0.76229998  0.46453327    -0.96750
O591        O  0.74169145  0.70555411  0.47015322    -0.90050
O592        O  0.68804451  0.74592775  0.47450159    -0.92890
C593        C  0.79998695  0.81916207  0.57156472     1.00860
C594        C  0.69236879  0.81688199  0.57448064     1.13790
C595        C  0.81934772  0.71255558  0.56700261     1.04570
O596        O  0.84486384  0.72854380  0.48601207    -0.95050
O597        O  0.80325107  0.69679342  0.44892955    -0.90790
O598        O  0.76671366  0.71514492  0.41424568    -0.83940
C599        C  0.79189224  0.69845283  0.42240619     1.11210
O600        O  0.69019293  0.66837950  0.54737393    -0.97020
Zr601      Zr  0.70026502  0.70021653  0.50357068     1.88940
O602        O  0.69376660  0.71122262  0.41942849    -0.73670
O603        O  0.79892079  0.66004266  0.50191249    -0.52930
O604        O  0.72060237  0.64618922  0.49697698    -0.97610
O605        O  0.64435084  0.69908948  0.51453829    -0.54830
O606        O  0.67257359  0.68385611  0.45719842    -0.74190
C607        C  0.67491068  0.69075382  0.42948768     0.98160
O608        O  0.74068224  0.77796230  0.39404758    -0.63010
O609        O  0.67652127  0.84899635  0.49169607    -0.57810
O610        O  0.67769963  0.77681112  0.42128401    -0.94490
O611        O  0.65564383  0.80285224  0.45917789    -0.92920
O612        O  0.76253042  0.86463814  0.49603878    -0.93270
O613        O  0.79378285  0.84062058  0.45264222    -0.92060
C614        C  0.65494653  0.79356023  0.43238991     1.17000
H615        H  0.73687106  0.82324727  0.53812833     0.32940
H616        H  0.79457893  0.76394558  0.45000774     0.43800
H617        H  0.66732988  0.74333418  0.46538084     0.37320
H618        H  0.75471079  0.69243930  0.54322465     0.33800
H619        H  0.84352405  0.82575923  0.48948312     0.25590
H620        H  0.82210241  0.65658176  0.50096394     0.31530
H621        H  0.70261642  0.63473659  0.48799197     0.37440
H622        H  0.78048832  0.87542356  0.50585056     0.31900
H623        H  0.65615747  0.85353131  0.50111457     0.30770
H624        H  0.62679585  0.79981286  0.52503904     0.32450
H625        H  0.63687442  0.67899233  0.50601174     0.31420
H626        H  0.78517322  0.82917595  0.43524517     0.35420
H627        H  0.73276213  0.80005374  0.39663953     0.28150
H628        H  0.74904248  0.73779435  0.61848984     0.32390
H629        H  0.67896591  0.64960499  0.53997458     0.35240
H630        H  0.69229401  0.86064177  0.50373727     0.27850
H631        H  0.76399863  0.77945394  0.39498704     0.40720
H632        H  0.85693763  0.70860168  0.49101987     0.30770
H633        H  0.84460911  0.79158558  0.50351225     0.38390
H634        H  0.63402158  0.71583982  0.50170591     0.30240
H635        H  0.79425588  0.65523580  0.52275045     0.30300
H636        H  0.73392684  0.71062285  0.59980794     0.30570
Zr637      Zr  0.98876144  0.69752670  0.25594429     2.17510
O638        O  0.01228645  0.64933351  0.23594312    -0.51790
O639        O  0.95094216  0.67327149  0.28423246    -0.74990
O640        O  0.02211263  0.67556898  0.29792395    -0.81780
O641        O  0.92224031  0.71209676  0.19777095    -0.83520
O642        O  0.02246154  0.71719282  0.32871449    -0.79140
O643        O  0.94432170  0.67329186  0.22768588    -0.90780
O644        O  0.92530232  0.71203218  0.30919185    -0.76740
O645        O  0.98654216  0.73155073  0.29755731    -0.86230
O646        O  0.94314017  0.73195508  0.25054987    -0.85920
O647        O  0.03731019  0.72586073  0.25726780    -0.72680
O648        O  0.99634310  0.72466014  0.21007492    -0.84820
Zr649      Zr  0.99393048  0.82323155  0.24506523     2.26420
Zr650      Zr  0.03286392  0.76187511  0.29772523     2.06270
Zr651      Zr  0.95062217  0.75916676  0.20546988     2.10050
Zr652      Zr  0.94091698  0.76465527  0.29187726     1.78760
O653        O  0.95388534  0.74020763  0.15496199    -0.93620
O654        O  0.94770735  0.76688530  0.34559026    -0.41430
O655        O  0.94618160  0.79417846  0.24642981    -0.78060
O656        O  0.98642665  0.79638850  0.29144629    -0.96750
O657        O  0.03997222  0.78975976  0.25279343    -0.90050
O658        O  0.99769005  0.78759860  0.20469275    -0.92890
C659        C  0.93106756  0.68273120  0.30267606     1.00860
C660        C  0.92261069  0.68419487  0.20900178     1.13790
C661        C  0.02927539  0.68840611  0.32300367     1.04570
O662        O  0.05857638  0.76285479  0.34700227    -0.95050
O663        O  0.03441782  0.81412671  0.31628716    -0.90790
O664        O  0.03836845  0.84370268  0.27562794    -0.83940
C665        C  0.04831330  0.83501061  0.30185472     1.11210
O666        O  0.07484828  0.70698274  0.20239447    -0.97020
Zr667      Zr  0.04353247  0.75503537  0.21211394     1.88940
O668        O  0.02711871  0.84617988  0.21047001    -0.73670
O669        O  0.08960568  0.76170968  0.28902355    -0.52930
O670        O  0.10048486  0.76027564  0.21931635    -0.97610
O671        O  0.03672085  0.74327294  0.15960920    -0.54830
O672        O  0.05880904  0.80674674  0.19281141    -0.74190
C673        C  0.04929005  0.83599097  0.19456061     0.98160
O674        O  0.97092164  0.87228108  0.26375393    -0.63010
O675        O  0.89762823  0.78250618  0.19791912    -0.57810
O676        O  0.96503718  0.84655918  0.20078734    -0.94490
O677        O  0.94224656  0.80574707  0.17649800    -0.92920
O678        O  0.88447323  0.76754049  0.27922463    -0.93270
O679        O  0.91458878  0.81072327  0.31314307    -0.92060
C680        C  0.94928655  0.83476893  0.17858699     1.17000
H681        H  0.92321098  0.72153066  0.25075231     0.32940
H682        H  0.98253132  0.81171736  0.30672198     0.43800
H683        H  0.99934989  0.79812574  0.18580756     0.37320
H684        H  0.05484956  0.71093919  0.26057896     0.33800
H685        H  0.92836365  0.75755785  0.35316666     0.25590
H686        H  0.10103029  0.75567352  0.30781386     0.31530
H687        H  0.10812104  0.76546739  0.19945309     0.37440
H688        H  0.87408901  0.76679935  0.29846757     0.31900
H689        H  0.88728151  0.76964028  0.18236551     0.30770
H690        H  0.93288922  0.74564288  0.14552302     0.32450
H691        H  0.05625012  0.75053232  0.15065630     0.31420
H692        H  0.91959224  0.82860504  0.29992373     0.35420
H693        H  0.94781342  0.86929293  0.26210735     0.28150
H694        H  0.00513200  0.63210258  0.24889852     0.32390
H695        H  0.08610415  0.71130476  0.18404758     0.35240
H696        H  0.88672962  0.77783471  0.21636165     0.27850
H697        H  0.97606917  0.87148163  0.28530992     0.40720
H698        H  0.07235279  0.74350366  0.34898386     0.30770
H699        H  0.96477537  0.75099670  0.35077828     0.38390
H700        H  0.01981229  0.75820945  0.15192237     0.30240
H701        H  0.09424217  0.74427560  0.27528960     0.30300
H702        H  0.03519245  0.65070509  0.24089015     0.30570
Zr703      Zr  0.48926015  0.01118331  0.93750181     2.17510
O704        O  0.46312956  0.98957222  0.89358371    -0.51790
O705        O  0.52649836  0.04255864  0.91381438    -0.74990
O706        O  0.45565742  0.05557819  0.91552436    -0.81780
O707        O  0.55230503  0.94467177  0.95187153    -0.83520
O708        O  0.43405628  0.08168334  0.95403989    -0.79140
O709        O  0.53067006  0.97569141  0.91466682    -0.90780
O710        O  0.55527142  0.06710043  0.94994509    -0.76740
O711        O  0.49217960  0.05674454  0.96861186    -0.86230
O712        O  0.53536579  0.00623178  0.96912007    -0.85920
O713        O  0.44236802  0.01242310  0.96627022    -0.72680
O714        O  0.48255059  0.96300013  0.96484042    -0.84820
Zr715      Zr  0.48643463  0.00215181  0.05721256     2.26420
Zr716      Zr  0.44794727  0.05646446  0.99925551     2.06270
Zr717      Zr  0.52867671  0.95914096  0.99670078     2.10050
Zr718      Zr  0.53831319  0.05133911  0.99949461     1.78760
O719        O  0.52453375  0.90258237  0.98783090    -0.93620
O720        O  0.53093327  0.10886400  0.99901785    -0.41430
O721        O  0.53330354  0.00353178  0.02870193    -0.78060
O722        O  0.49374481  0.05152290  0.03117253    -0.96750
O723        O  0.44082958  0.00883513  0.02551884    -0.90050
O724        O  0.48279333  0.95800254  0.02502306    -0.92890
C725        C  0.54814306  0.06095111  0.92258173     1.00860
C726        C  0.55102643  0.95415094  0.92499752     1.13790
C727        C  0.43847126  0.07800787  0.92677008     1.04570
O728        O  0.46212601  0.10994931  0.01331803    -0.95050
O729        O  0.41765610  0.06096306  0.04221369    -0.90790
O730        O  0.44020752  0.03016636  0.07911972    -0.83940
C731        C  0.41800235  0.04925316  0.06832596     1.11210
O732        O  0.41228957  0.93934041  0.95128497    -0.97020
Zr733      Zr  0.43656064  0.96462661  0.99445849     1.88940
O734        O  0.45082787  0.96744342  0.08000935    -0.73670
O735        O  0.39288935  0.07543093  0.99433262    -0.52930
O736        O  0.38144287  0.98242336  0.98766842    -0.97610
O737        O  0.43819447  0.90681323  0.99820532    -0.54830
O738        O  0.41624793  0.95339410  0.04339748    -0.74190
C739        C  0.42501126  0.95530955  0.07090773     0.98160
O740        O  0.50929348  0.02532286  0.10194063    -0.63010
O741        O  0.58556717  0.96066996  0.00660419    -0.57810
O742        O  0.52188348  0.95940377  0.07908269    -0.94490
O743        O  0.53869772  0.92995860  0.04104905    -0.92920
O744        O  0.59525354  0.04113142  0.00243445    -0.93270
O745        O  0.56618623  0.07513119  0.04144264    -0.92060
C746        C  0.53632512  0.93476186  0.06853957     1.17000
H747        H  0.55456688  0.00494543  0.95830533     0.32940
H748        H  0.49479908  0.06878073  0.04502612     0.43800
H749        H  0.48138917  0.93833433  0.03593899     0.37320
H750        H  0.42387447  0.01589142  0.95330785     0.33800
H751        H  0.55194001  0.11696102  0.99445995     0.25590
H752        H  0.39293503  0.09817815  0.98865205     0.31530
H753        H  0.36897904  0.96311559  0.98978251     0.37440
H754        H  0.60442970  0.06138840  0.99630068     0.31900
H755        H  0.59466665  0.94386386  0.99412296     0.30770
H756        H  0.54520738  0.89302673  0.99466758     0.32450
H757        H  0.43993883  0.90171317  0.01964416     0.31420
H758        H  0.55923218  0.06324712  0.05892019     0.35420
H759        H  0.53231178  0.02514881  0.09877183     0.28150
H760        H  0.46873244  0.00392782  0.87724724     0.32390
H761        H  0.39562501  0.92578506  0.95886609     0.35240
H762        H  0.59202452  0.98058579  0.99717837     0.27850
H763        H  0.50264535  0.04802380  0.10065826     0.40720
H764        H  0.44987904  0.12404633  0.99914650     0.30770
H765        H  0.51765193  0.11375545  0.98095474     0.38390
H766        H  0.45902706  0.90029785  0.99066911     0.30240
H767        H  0.38341712  0.06446392  0.97705779     0.30300
H768        H  0.44031203  0.99403967  0.89619429     0.30570
C769        C  0.26512215  0.93538448  0.30389816     0.02670
C770        C  0.27670995  0.96166533  0.31849638    -0.13470
C771        C  0.29225669  0.98416892  0.30234160     0.00180
C772        C  0.29405522  0.98080842  0.27145768    -0.12000
C773        C  0.28935782  0.95098877  0.25833225     0.02670
C774        C  0.27639866  0.92773158  0.27641299    -0.11420
H775        H  0.27171224  0.96551045  0.34153238     0.08260
H776        H  0.29979608  0.00138138  0.25882352     0.05790
H777        H  0.27319831  0.90393492  0.26899242     0.05640
C778        C  0.41941042  0.80899374  0.25128443     0.02670
C779        C  0.40666242  0.78147728  0.26325746    -0.13470
C780        C  0.42229441  0.76499049  0.28694744     0.00180
C781        C  0.45193887  0.77505044  0.29733487    -0.12000
C782        C  0.46370887  0.80407622  0.28797792     0.02670
C783        C  0.44768136  0.82039349  0.26424042    -0.11420
H784        H  0.38359858  0.77396796  0.25538954     0.08260
H785        H  0.46412150  0.76219597  0.31548923     0.05790
H786        H  0.45620724  0.84293999  0.25678266     0.05640
C787        C  0.36322108  0.67286409  0.36836531    -0.02940
C788        C  0.42305522  0.98733792  0.43517901     0.02670
C789        C  0.45263092  0.97463415  0.42658282    -0.13470
C790        C  0.46518431  0.94535386  0.43757421     0.00180
C791        C  0.45106021  0.93079560  0.46158649    -0.12000
C792        C  0.42348084  0.94388845  0.47372560     0.02670
C793        C  0.40862358  0.97131344  0.45925979    -0.11420
H794        H  0.46540842  0.98659302  0.40969265     0.08260
H795        H  0.46084918  0.90830789  0.47008519     0.05790
H796        H  0.38573755  0.97955821  0.46639797     0.05640
C797        C  0.28977333  0.76691086  0.43883418     0.02670
C798        C  0.29854322  0.77968425  0.46644230    -0.13470
C799        C  0.27961873  0.80341427  0.47953235     0.00180
C800        C  0.25050300  0.81233849  0.46550596    -0.12000
C801        C  0.24268478  0.80189766  0.43683947     0.02670
C802        C  0.26229668  0.77915897  0.42368890    -0.11420
H803        H  0.32074150  0.77187813  0.47725855     0.08260
H804        H  0.23554872  0.83029523  0.47535302     0.05790
H805        H  0.25686827  0.77192857  0.40116041     0.05640
C806        C  0.35849899  0.87045181  0.56845915    -0.02940
C807        C  0.15778222  0.88556018  0.36248460    -0.02940
C808        C  0.34878255  0.88843012  0.15763844    -0.02940
C809        C  0.55884297  0.87196087  0.36490775    -0.02940
C810        C  0.35934883  0.09036723  0.35698639    -0.02940
Zr811      Zr  0.79977194  0.00582955  0.24432363     2.17510
O812        O  0.84992291  0.98303380  0.26377402    -0.51790
O813        O  0.82152732  0.03809131  0.20760597    -0.74990
O814        O  0.81606785  0.97465321  0.19930865    -0.81780
O815        O  0.78963806  0.05844287  0.31186564    -0.83520
O816        O  0.77123735  0.96748248  0.17203712    -0.79140
O817        O  0.82126108  0.05276667  0.27338909    -0.90780
O818        O  0.78182624  0.06994018  0.18830422    -0.76740
O819        O  0.76224344  0.00656446  0.20406456    -0.86230
O820        O  0.76635073  0.05202870  0.24715233    -0.85920
O821        O  0.77108940  0.95726758  0.24895820    -0.72680
O822        O  0.77309861  0.99868017  0.28997597    -0.84820
Zr823      Zr  0.67283257  0.00022545  0.25774637     2.26420
Zr824      Zr  0.73279176  0.96012806  0.20850072     2.06270
Zr825      Zr  0.73948628  0.04495940  0.29157699     2.10050
Zr826      Zr  0.72994434  0.05241453  0.20618071     1.78760
O827        O  0.74387636  0.05687414  0.34420288    -0.93620
O828        O  0.72304811  0.03923611  0.15404994    -0.41430
O829        O  0.70165450  0.04789776  0.25153189    -0.78060
O830        O  0.69820228  0.00595182  0.21100066    -0.96750
O831        O  0.70637178  0.95489818  0.25321191    -0.90050
O832        O  0.71081523  0.99845623  0.29776967    -0.92890
C833        C  0.81136356  0.06083800  0.19082779     1.00860
C834        C  0.81235319  0.06776453  0.29698569     1.13790
C835        C  0.80123793  0.96643829  0.17480428     1.04570
O836        O  0.70438188  0.95578914  0.16088028    -0.95050
O837        O  0.68904124  0.92616434  0.20883016    -0.90790
O838        O  0.65027729  0.95165718  0.23385610    -0.83940
C839        C  0.66111976  0.92806292  0.21839804     1.11210
O840        O  0.78991858  0.92832663  0.31842074    -0.97020
Zr841      Zr  0.74231642  0.95164540  0.29375510     1.88940
O842        O  0.65351433  0.96973937  0.29722628    -0.73670
O843        O  0.75660260  0.90672709  0.20716261    -0.52930
O844        O  0.74770351  0.89622404  0.27952722    -0.97610
O845        O  0.74158481  0.95346158  0.34773133    -0.54830
O846        O  0.68977116  0.93004377  0.30421370    -0.74190
C847        C  0.66139663  0.94187858  0.30619585     0.98160
O848        O  0.62263264  0.02058195  0.23608671    -0.63010
O849        O  0.72521826  0.09608341  0.26790894    -0.57810
O850        O  0.65288116  0.03569342  0.29796388    -0.94490
O851        O  0.69557418  0.05969840  0.31890713    -0.92920
O852        O  0.72898416  0.11020470  0.20737703    -0.93270
O853        O  0.68248725  0.08069393  0.18669217    -0.92060
C854        C  0.66632205  0.05396602  0.31746252     1.17000
H855        H  0.77736194  0.07168133  0.24619093     0.32940
H856        H  0.68239306  0.00569180  0.19501592     0.43800
H857        H  0.70110709  0.99857476  0.31672431     0.37320
H858        H  0.78556082  0.93932888  0.24703022     0.33800
H859        H  0.72183299  0.05995154  0.14350148     0.25590
H860        H  0.74357809  0.89527577  0.19235148     0.31530
H861        H  0.73628070  0.88435757  0.29458532     0.37440
H862        H  0.73659126  0.11689597  0.18789426     0.31900
H863        H  0.71287235  0.10823195  0.28224150     0.30770
H864        H  0.74643414  0.03586376  0.35416285     0.32450
H865        H  0.74065747  0.93104451  0.35426815     0.31420
H866        H  0.66493053  0.07060525  0.19673965     0.35420
H867        H  0.62296143  0.04373426  0.23945308     0.28150
H868        H  0.86544699  0.98924441  0.24910166     0.32390
H869        H  0.78386480  0.90743375  0.32622602     0.35240
H870        H  0.74464719  0.10808528  0.26536714     0.27850
H871        H  0.62484128  0.01840696  0.21447140     0.40720
H872        H  0.70804263  0.97595539  0.15033700     0.30770
H873        H  0.74359602  0.02952813  0.14867554     0.38390
H874        H  0.72058750  0.96265801  0.35234153     0.30240
H875        H  0.77733146  0.90892967  0.19807966     0.30300
H876        H  0.84792203  0.95989017  0.26115092     0.30570
Zr877      Zr  0.74250945  0.32519259  0.00078179     2.17510
O878        O  0.76360392  0.37354287  0.98050718    -0.51790
O879        O  0.71019545  0.34800877  0.03745005    -0.74990
O880        O  0.69873970  0.35254117  0.97242538    -0.81780
O881        O  0.80740397  0.30616176  0.05930620    -0.83520
O882        O  0.66938461  0.31356831  0.95168654    -0.79140
O883        O  0.77856158  0.34790219  0.03927156    -0.90780
O884        O  0.68282479  0.30868557  0.05869443    -0.76740
O885        O  0.69717544  0.29291686  0.99934256    -0.86230
O886        O  0.74618767  0.28918625  0.04166064    -0.85920
O887        O  0.74260954  0.29832320  0.95399388    -0.72680
O888        O  0.79034188  0.29500213  0.99292597    -0.84820
Zr889      Zr  0.74907123  0.19858412  0.98876187     2.26420
Zr890      Zr  0.69802199  0.26463370  0.95429297     2.06270
Zr891      Zr  0.79321636  0.25915552  0.03405443     2.10050
Zr892      Zr  0.70092072  0.25746005  0.04020139     1.78760
O893        O  0.84985427  0.26625841  0.03110834    -0.93620
O894        O  0.64346644  0.25803206  0.03422986    -0.41430
O895        O  0.74843935  0.22594780  0.03498792    -0.78060
O896        O  0.70054939  0.22813069  0.99501229    -0.96750
O897        O  0.74440492  0.23380785  0.94763582    -0.90050
O898        O  0.79424752  0.23115519  0.98900356    -0.92890
C899        C  0.68996839  0.33787296  0.05518946     1.00860
C900        C  0.79930361  0.33551640  0.05815125     1.13790
C901        C  0.67431083  0.34239889  0.95789667     1.04570
O902        O  0.64311029  0.24921325  0.95627022    -0.95050
O903        O  0.69206941  0.21987965  0.92289597    -0.90790
O904        O  0.71874200  0.17789167  0.94521861    -0.83940
C905        C  0.70081658  0.19065982  0.92415248     1.11210
O906        O  0.81991952  0.30901144  0.92905675    -0.97020
Zr907      Zr  0.78906028  0.26555490  0.94743380     1.88940
O908        O  0.78824855  0.17693606  0.95847832    -0.73670
O909        O  0.69232380  0.28033213  0.90233571    -0.52930
O910        O  0.77229581  0.27972885  0.89670443    -0.97610
O911        O  0.84604079  0.25467632  0.94827888    -0.54830
O912        O  0.79276330  0.21384788  0.92293716    -0.74190
C913        C  0.79414426  0.18482999  0.93219320     0.98160
O914        O  0.72491715  0.15018063  0.00542435    -0.63010
O915        O  0.79623931  0.24685919  0.08690699    -0.57810
O916        O  0.78822996  0.17036513  0.02182950    -0.94490
O917        O  0.81879454  0.20907767  0.04146215    -0.92920
O918        O  0.71348931  0.25144497  0.09301123    -0.93270
O919        O  0.67765423  0.21063212  0.06134388    -0.92060
C920        C  0.81207020  0.18021630  0.03739095     1.17000
H921        H  0.74731550  0.29990100  0.06042744     0.32940
H922        H  0.68283709  0.21420709  0.99399381     0.43800
H923        H  0.81378028  0.21890657  0.98782430     0.37320
H924        H  0.74010743  0.31374323  0.93805800     0.33800
H925        H  0.63580277  0.26344743  0.05403361     0.25590
H926        H  0.66929444  0.27977337  0.89774759     0.31530
H927        H  0.78815560  0.26927485  0.88424273     0.37440
H928        H  0.69290887  0.25420165  0.10251308     0.31900
H929        H  0.81807442  0.25186171  0.09354617     0.30770
H930        H  0.85880018  0.26008848  0.05098150     0.32450
H931        H  0.84866633  0.23137219  0.94653917     0.31420
H932        H  0.69145544  0.19271470  0.05517849     0.35420
H933        H  0.72942394  0.14934143  0.02708216     0.28150
H934        H  0.74935047  0.39078802  0.98733005     0.32390
H935        H  0.82986175  0.30102982  0.91099214     0.35240
H936        H  0.78269152  0.26326835  0.09608384     0.27850
H937        H  0.70188596  0.15490143  0.00340767     0.40720
H938        H  0.63222549  0.26667500  0.96668167     0.30770
H939        H  0.63804926  0.27709213  0.02188767     0.38390
H940        H  0.85340343  0.25921576  0.96881064     0.30240
H941        H  0.69738071  0.30307019  0.90159340     0.30300
H942        H  0.75895224  0.37240946  0.95891244     0.30570
C943        C  0.43804322  0.45712790  0.98632350     0.02670
C944        C  0.42588711  0.48668772  0.97464247    -0.13470
C945        C  0.43921977  0.50135201  0.94949754     0.00180
C946        C  0.46683366  0.48757018  0.93858889    -0.12000
C947        C  0.48069058  0.45983644  0.95104431     0.02670
C948        C  0.46646274  0.44482176  0.97490829    -0.11420
H949        H  0.40429737  0.49668390  0.98326004     0.08260
H950        H  0.47601546  0.49645713  0.91815541     0.05790
H951        H  0.47629157  0.42225255  0.98314635     0.05640
C952        C  0.30453142  0.44260393  0.75884545     0.02670
C953        C  0.27918878  0.42736975  0.77200500    -0.13470
C954        C  0.26542652  0.44016815  0.79740286     0.00180
C955        C  0.27772135  0.46804822  0.80956255    -0.12000
C956        C  0.30214614  0.48379578  0.79606012     0.02670
C957        C  0.31487106  0.47130227  0.77047709    -0.11420
H958        H  0.27012018  0.40588736  0.76240282     0.08260
H959        H  0.26785420  0.47783718  0.82940914     0.05790
H960        H  0.33429638  0.48308763  0.76048761     0.05640
C961        C  0.36527387  0.58749302  0.86206982    -0.02940
C962        C  0.48689439  0.31394117  0.80509127     0.02670
C963        C  0.47657812  0.32152880  0.77573914    -0.13470
C964        C  0.44990046  0.30737307  0.76266566     0.00180
C965        C  0.43637949  0.28195354  0.77720759    -0.12000
C966        C  0.44581678  0.27334611  0.80626774     0.02670
C967        C  0.47089547  0.28982139  0.82019416    -0.11420
H968        H  0.48778727  0.34025128  0.76383804     0.08260
H969        H  0.41591545  0.27106993  0.76688621     0.05790
H970        H  0.47733591  0.28442628  0.84312903     0.05640
C971        C  0.57596444  0.39254279  0.87860190    -0.02940
C972        C  0.37504087  0.37548704  0.66562624    -0.02940
C973        C  0.36345779  0.18218997  0.86874050    -0.02940
C974        C  0.14844709  0.39833640  0.85446598    -0.02940
C975        C  0.24683779  0.32788388  0.92553486     0.02670
C976        C  0.26189092  0.34094271  0.95092776    -0.13470
C977        C  0.28771249  0.32513575  0.96609048     0.00180
C978        C  0.29839949  0.29571741  0.95487410    -0.12000
C979        C  0.28618554  0.28358949  0.92806264     0.02670
C980        C  0.25979823  0.29952473  0.91409987    -0.11420
H981        H  0.25330441  0.36346672  0.95899391     0.08260
H982        H  0.31756223  0.28272742  0.96646061     0.05790
H983        H  0.24977489  0.29015051  0.89371795     0.05640
C984        C  0.36535787  0.37391559  0.06967812    -0.02940
C985        C  0.73380773  0.55428088  0.21128024     0.02670
C986        C  0.72110451  0.56462835  0.23827521    -0.13470
C987        C  0.69116370  0.55470762  0.24684488     0.00180
C988        C  0.67604735  0.53111310  0.23016186    -0.12000
C989        C  0.68946050  0.51966287  0.20423012     0.02670
C990        C  0.71733357  0.53210669  0.19485405    -0.11420
H991        H  0.73291904  0.58262020  0.25111531     0.08260
H992        H  0.65311878  0.52307297  0.23635993     0.05790
H993        H  0.72588807  0.52481518  0.17374012     0.05640
C994        C  0.48804067  0.69081884  0.18972618     0.02670
C995        C  0.50414773  0.71722732  0.17937574    -0.13470
C996        C  0.52855068  0.73092370  0.19651411     0.00180
C997        C  0.53773800  0.71695651  0.22378765    -0.12000
C998        C  0.52223139  0.69090270  0.23545465     0.02670
C999        C  0.49579885  0.67959317  0.21885119    -0.11420
H1000       H  0.49797735  0.72688369  0.15754398     0.08260
H1001       H  0.55756289  0.72652868  0.23602287     0.05790
H1002       H  0.48178653  0.66131876  0.22802423     0.05640
C1003       C  0.60821602  0.62857355  0.32816948    -0.02940
C1004       C  0.55683303  0.56208845  0.01561617     0.02670
C1005       C  0.57063767  0.53375557  0.02915108    -0.13470
C1006       C  0.55393744  0.51600153  0.05045680     0.00180
C1007       C  0.52351195  0.52622590  0.05692070    -0.12000
C1008       C  0.51090953  0.55508579  0.04624406     0.02670
C1009       C  0.52684704  0.57237505  0.02489938    -0.11420
H1010       H  0.59457881  0.52644284  0.02420827     0.08260
H1011       H  0.51097452  0.51372928  0.07376047     0.05790
H1012       H  0.51635608  0.59451753  0.01632044     0.05640
C1013       C  0.62201901  0.42467583  0.13327033    -0.02940
C1014       C  0.40298195  0.61378525  0.10801543    -0.02940
C1015       C  0.68109941  0.73889545  0.07743737     0.02670
C1016       C  0.66892741  0.72570528  0.05069194    -0.13470
C1017       C  0.68650549  0.70235886  0.03532399     0.00180
C1018       C  0.71629341  0.69243009  0.04721504    -0.12000
C1019       C  0.72789987  0.70363635  0.07450635     0.02670
C1020       C  0.71063688  0.72741153  0.08916418    -0.11420
H1021       H  0.64567629  0.73335117  0.04206382     0.08260
H1022       H  0.72964621  0.67402005  0.03614432     0.05790
H1023       H  0.71922458  0.73547228  0.11060637     0.05640
C1024       C  0.62963596  0.63990120  0.92742723    -0.02940
C1025       C  0.59902710  0.83348349  0.14249514    -0.02940
C1026       C  0.82649844  0.62039473  0.13720895    -0.02940
Zr1027     Zr  0.74754151  0.50514421  0.69008251     2.17510
O1028       O  0.72173713  0.53174010  0.64722851    -0.51790
O1029       O  0.77822768  0.46884213  0.66233504    -0.74990
O1030       O  0.79711094  0.52916896  0.67046588    -0.81780
O1031       O  0.69382364  0.43416248  0.70831521    -0.83520
O1032       O  0.81980223  0.55923178  0.70615512    -0.79140
O1033       O  0.71875361  0.45782785  0.67068607    -0.90780
O1034       O  0.81205079  0.44654225  0.69766309    -0.76740
O1035       O  0.79408166  0.50795626  0.72029187    -0.86230
O1036       O  0.75003238  0.46010954  0.72225041    -0.85920
O1037       O  0.74117954  0.55389515  0.71763918    -0.72680
O1038       O  0.70129156  0.51085985  0.71996359    -0.84820
Zr1039     Zr  0.74623273  0.51282230  0.81093110     2.26420
Zr1040     Zr  0.78819281  0.55453882  0.74849657     2.06270
Zr1041     Zr  0.70479759  0.46496066  0.75155130     2.10050
Zr1042     Zr  0.79755713  0.46200067  0.74991810     1.78760
O1043       O  0.64872836  0.46020936  0.73874336    -0.93620
O1044       O  0.85381670  0.47209466  0.75069976    -0.41430
O1045       O  0.75237224  0.46518885  0.78175711    -0.78060
O1046       O  0.79238518  0.50875069  0.78064269    -0.96750
O1047       O  0.74438992  0.55847930  0.77964897    -0.90050
O1048       O  0.69949078  0.51176546  0.78010210    -0.92890
C1049       C  0.80191447  0.45089127  0.67014737     1.00860
C1050       C  0.70246389  0.43503323  0.68154789     1.13790
C1051       C  0.81975785  0.54700270  0.68045528     1.04570
O1052       O  0.84355813  0.55533747  0.76344253    -0.95050
O1053       O  0.79701962  0.58669559  0.79048586    -0.90790
O1054       O  0.77533099  0.56190938  0.82951293    -0.83940
C1055       C  0.79111948  0.58495334  0.81784662     1.11210
O1056       O  0.66519791  0.58700093  0.71280440    -0.97020
Zr1057     Zr  0.69724662  0.55792552  0.75063883     1.88940
O1058       O  0.70915084  0.54416304  0.83695216    -0.73670
O1059       O  0.78305311  0.60960369  0.73134949    -0.52930
O1060       O  0.70862825  0.61418127  0.74815971    -0.97610
O1061       O  0.64073415  0.54802269  0.74962101    -0.54830
O1062       O  0.68447202  0.57614917  0.80207838    -0.74190
C1063       C  0.69054712  0.56739254  0.82952807     0.98160
O1064       O  0.77568030  0.49035238  0.85386042    -0.63010
O1065       O  0.71765839  0.41186322  0.76972496    -0.57810
O1066       O  0.70356061  0.47890854  0.83364671    -0.94490
O1067       O  0.67743336  0.45465295  0.79560723    -0.92920
O1068       O  0.79544227  0.40436861  0.74929513    -0.93270
O1069       O  0.82544446  0.43547452  0.79177779    -0.92060
C1070       C  0.68103378  0.46099481  0.82307183     1.17000
H1071       H  0.75181648  0.43995750  0.71250999     0.32940
H1072       H  0.81091129  0.50985645  0.79369046     0.43800
H1073       H  0.68055555  0.51231347  0.79128339     0.37320
H1074       H  0.74020632  0.57171467  0.70400441     0.33800
H1075       H  0.86402364  0.45127868  0.74648338     0.25590
H1076       H  0.80388706  0.61866174  0.73630860     0.31530
H1077       H  0.71925791  0.61880044  0.76746613     0.37440
H1078       H  0.81458797  0.39732279  0.73896864     0.31900
H1079       H  0.70114120  0.39887699  0.76023313     0.30770
H1080       H  0.64358182  0.43852004  0.74523051     0.32450
H1081       H  0.63631331  0.54020999  0.76970963     0.31420
H1082       H  0.81749337  0.44647937  0.80937522     0.35420
H1083       H  0.77564779  0.46715648  0.85069260     0.28150
H1084       H  0.72768438  0.51844083  0.63027408     0.32390
H1085       H  0.65238758  0.60274745  0.72366072     0.35240
H1086       H  0.73743100  0.40557159  0.76018247     0.27850
H1087       H  0.79782715  0.49622357  0.85093729     0.40720
H1088       H  0.84998736  0.53310614  0.76832860     0.30770
H1089       H  0.85640010  0.48474719  0.73248225     0.38390
H1090       H  0.63830711  0.52924134  0.73686673     0.30240
H1091       H  0.78201657  0.60886520  0.70945035     0.30300
H1092       H  0.73363306  0.55139595  0.64476276     0.30570
Zr1093     Zr  0.99811387  0.01042567  0.44086387     2.17510
O1094       O  0.97016100  0.98831198  0.39819083    -0.51790
O1095       O  0.03221513  0.04458510  0.41532541    -0.74990
O1096       O  0.96954408  0.05777306  0.41952737    -0.81780
O1097       O  0.06035994  0.94399013  0.45243188    -0.83520
O1098       O  0.95319207  0.08856947  0.45717489    -0.79140
O1099       O  0.03652895  0.97510160  0.41617313    -0.90780
O1100       O  0.06328097  0.06872641  0.45003808    -0.76740
O1101       O  0.00225195  0.05590964  0.47109909    -0.86230
O1102       O  0.04546102  0.00464003  0.47080640    -0.85920
O1103       O  0.95137574  0.01089813  0.46977966    -0.72680
O1104       O  0.99136151  0.96216772  0.46869547    -0.84820
Zr1105     Zr  0.99769043  0.00346416  0.55919994     2.26420
Zr1106     Zr  0.95735607  0.05644464  0.50071324     2.06270
Zr1107     Zr  0.03850882  0.95753431  0.49894185     2.10050
Zr1108     Zr  0.04939755  0.05036005  0.50015396     1.78760
O1109       O  0.02595177  0.90237174  0.49031053    -0.93620
O1110       O  0.04516483  0.10791326  0.50335869    -0.41430
O1111       O  0.04385695  0.00306079  0.52963445    -0.78060
O1112       O  0.00439543  0.05204016  0.53162248    -0.96750
O1113       O  0.95155149  0.00932693  0.52833333    -0.90050
O1114       O  0.99378387  0.95765436  0.52901864    -0.92890
C1115       C  0.05407905  0.06343085  0.42294460     1.00860
C1116       C  0.05738956  0.95396373  0.42562820     1.13790
C1117       C  0.95661721  0.08336971  0.42977468     1.04570
O1118       O  0.96084341  0.10993772  0.52010991    -0.95050
O1119       O  0.92752285  0.06070878  0.54424785    -0.90790
O1120       O  0.95111295  0.03001702  0.58070458    -0.83940
C1121       C  0.92827628  0.04832544  0.57018713     1.11210
O1122       O  0.91963143  0.94168197  0.45604769    -0.97020
Zr1123     Zr  0.94634313  0.96348034  0.49975475     1.88940
O1124       O  0.95946473  0.97353745  0.58418387    -0.73670
O1125       O  0.90225974  0.06586906  0.48412027    -0.52930
O1126       O  0.89044738  0.97887999  0.49845818    -0.97610
O1127       O  0.94864395  0.90557090  0.50009221    -0.54830
O1128       O  0.92968510  0.94781538  0.54991218    -0.74190
C1129       C  0.93759027  0.95458995  0.57704201     0.98160
O1130       O  0.02219181  0.02881622  0.60203722    -0.63010
O1131       O  0.09400068  0.94421611  0.51090281    -0.57810
O1132       O  0.03168587  0.96090186  0.58305622    -0.94490
O1133       O  0.05515969  0.93494804  0.54537748    -0.92920
O1134       O  0.10541489  0.03581851  0.49856811    -0.93270
O1135       O  0.08135585  0.07041357  0.54139636    -0.92060
C1136       C  0.04991891  0.93891200  0.57266354     1.17000
H1137       H  0.06405440  0.00350707  0.45918759     0.32940
H1138       H  0.00566308  0.06977138  0.54492914     0.43800
H1139       H  0.99332018  0.93853859  0.54086705     0.37320
H1140       H  0.93289745  0.01370015  0.45669915     0.33800
H1141       H  0.06563847  0.11538077  0.49652689     0.25590
H1142       H  0.89865906  0.08914964  0.48498552     0.31530
H1143       H  0.87953388  0.95937984  0.50399207     0.37440
H1144       H  0.11477496  0.05334142  0.48745444     0.31900
H1145       H  0.10137971  0.93041820  0.49483252     0.30770
H1146       H  0.04429886  0.89004937  0.49916070     0.32450
H1147       H  0.92839289  0.89931951  0.50837629     0.31420
H1148       H  0.06879607  0.06647908  0.55902293     0.35420
H1149       H  0.04505867  0.02828817  0.59814564     0.28150
H1150       H  0.97480340  0.00259008  0.38148701     0.32390
H1151       H  0.90252145  0.92859153  0.46345614     0.35240
H1152       H  0.10512760  0.96434409  0.50863381     0.27850
H1153       H  0.01559179  0.05147556  0.59991758     0.40720
H1154       H  0.97844793  0.11940638  0.50968152     0.30770
H1155       H  0.02968081  0.11436619  0.48729705     0.38390
H1156       H  0.96480704  0.89926694  0.51560752     0.30240
H1157       H  0.90083581  0.06087324  0.46276906     0.30300
H1158       H  0.94749739  0.99242010  0.40180176     0.30570
C1159       C  0.68129505  0.07404424  0.72767135     0.02670
C1160       C  0.67474268  0.04441432  0.71453544    -0.13470
C1161       C  0.68002427  0.03870435  0.68429900     0.00180
C1162       C  0.69590143  0.06135112  0.66848005    -0.12000
C1163       C  0.71088185  0.08557885  0.68345973     0.02670
C1164       C  0.69973621  0.09474613  0.71112299    -0.11420
H1165       H  0.66601974  0.02540342  0.72781460     0.08260
H1166       H  0.70379397  0.05581611  0.64660042     0.05790
H1167       H  0.70652559  0.11725403  0.71978590     0.05640
C1168       C  0.56577260  0.23222703  0.68928334     0.02670
C1169       C  0.53618623  0.22257548  0.67725101    -0.13470
C1170       C  0.51909125  0.19891906  0.69162079     0.00180
C1171       C  0.53170030  0.18634648  0.71880277    -0.12000
C1172       C  0.56199426  0.19467005  0.73010409     0.02670
C1173       C  0.57887553  0.21707417  0.71470011    -0.11420
H1174       H  0.52724755  0.23239545  0.65621568     0.08260
H1175       H  0.51895000  0.16817861  0.73004616     0.05790
H1176       H  0.60257727  0.22275690  0.72241824     0.05640
C1177       C  0.55602225  0.01500041  0.55958707     0.02670
C1178       C  0.52805988  0.02989981  0.56849206    -0.13470
C1179       C  0.51403670  0.05585775  0.55285754     0.00180
C1180       C  0.52723345  0.06599056  0.52649619    -0.12000
C1181       C  0.55521087  0.05190774  0.51622313     0.02670
C1182       C  0.56920920  0.02574934  0.53286550    -0.11420
H1183       H  0.51795178  0.02212989  0.58888232     0.08260
H1184       H  0.51656729  0.08642373  0.51487128     0.05790
H1185       H  0.59085302  0.01449126  0.52563568     0.05640
C1186       C  0.73981419  0.19873817  0.54712224     0.02670
C1187       C  0.72823537  0.22835574  0.55680231    -0.13470
C1188       C  0.69840523  0.24117496  0.54652081     0.00180
C1189       C  0.68256196  0.22526057  0.52314498    -0.12000
C1190       C  0.69552128  0.19738883  0.51056591     0.02670
C1191       C  0.72409664  0.18443096  0.52296412    -0.11420
H1192       H  0.74131238  0.24005928  0.57434039     0.08260
H1193       H  0.65915967  0.23329233  0.51561941     0.05790
H1194       H  0.73281245  0.16159410  0.51543030     0.05640
C1195       C  0.61918658  0.12475168  0.41984274    -0.02940
C1196       C  0.42043125  0.12804114  0.62254408    -0.02940
C1197       C  0.63203748  0.33406357  0.62354189    -0.02940
C1198       C  0.62953343  0.92049693  0.63820578    -0.02940
C1199       C  0.82908869  0.11952928  0.62677375    -0.02940
C1200       C  0.62337539  0.12483315  0.83356403    -0.02940
C1201       C  0.05139071  0.70511362  0.72967500     0.02670
C1202       C  0.06392383  0.73080916  0.71432656    -0.13470
C1203       C  0.05086955  0.74065670  0.68644420     0.00180
C1204       C  0.02467101  0.72425426  0.67420473    -0.12000
C1205       C  0.01179830  0.69836742  0.68937154     0.02670
C1206       C  0.02499502  0.68965156  0.71733161    -0.11420
H1207       H  0.08539307  0.74135185  0.72289140     0.08260
H1208       H  0.01552839  0.73045307  0.65211478     0.05790
H1209       H  0.01656488  0.66873723  0.72833468     0.05640
C1210       C  0.91428776  0.62193303  0.62067418    -0.02940
C1211       C  0.23455509  0.68749758  0.55015696     0.02670
C1212       C  0.22550283  0.71897776  0.55701729    -0.13470
C1213       C  0.19914919  0.73468258  0.54262677     0.00180
C1214       C  0.18573244  0.72080082  0.51708498    -0.12000
C1215       C  0.19275735  0.68880339  0.50950094     0.02670
C1216       C  0.21644818  0.67218725  0.52750465    -0.11420
H1217       H  0.23766367  0.73088653  0.57498559     0.08260
H1218       H  0.16824541  0.73456755  0.50411108     0.05790
H1219       H  0.22041737  0.64701412  0.52470637     0.05640
C1220       C  0.04926521  0.51855689  0.55118346     0.02670
C1221       C  0.01848151  0.53020231  0.55715976    -0.13470
C1222       C  0.00306163  0.55597798  0.54093132     0.00180
C1223       C  0.01986287  0.56763885  0.51672678    -0.12000
C1224       C  0.05178689  0.55824958  0.51220865     0.02670
C1225       C  0.06626138  0.53440750  0.53012876    -0.11420
H1226       H  0.00762622  0.51964917  0.57585378     0.08260
H1227       H  0.00909583  0.58405358  0.50093562     0.05790
H1228       H  0.09099320  0.52800087  0.52763530     0.05640
C1229       C  0.20152508  0.54682349  0.74305132     0.02670
C1230       C  0.18498746  0.52395716  0.72674994    -0.13470
C1231       C  0.19710009  0.51205311  0.70058039     0.00180
C1232       C  0.22394809  0.52566360  0.68912285    -0.12000
C1233       C  0.24057299  0.54917816  0.70451428     0.02670
C1234       C  0.23004998  0.55785115  0.73261275    -0.11420
H1235       H  0.16213676  0.51649258  0.73376742     0.08260
H1236       H  0.23058760  0.51910583  0.66705400     0.05790
H1237       H  0.24225295  0.57541969  0.74551800     0.05640
C1238       C  0.12613435  0.42339561  0.62473583    -0.02940
C1239       C  0.11419890  0.62672165  0.41449966    -0.02940
C1240       C  0.12378005  0.62736019  0.82035171    -0.02940
C1241       C  0.33184811  0.61539331  0.62970894    -0.02940
C1242       C  0.12663257  0.82972413  0.61388204    -0.02940
C1243       C  0.79329009  0.48650794  0.30361660     0.02670
C1244       C  0.76355060  0.47489139  0.30826036    -0.13470
C1245       C  0.75386561  0.44742459  0.29418828     0.00180
C1246       C  0.77157881  0.43509730  0.27092272    -0.12000
C1247       C  0.80175948  0.44708211  0.26501164     0.02670
C1248       C  0.81323103  0.47081979  0.28399525    -0.11420
H1249       H  0.74926982  0.48523303  0.32526460     0.08260
H1250       H  0.76258265  0.41513175  0.25873471     0.05790
H1251       H  0.83770192  0.47723378  0.28412308     0.05640
C1252       C  0.85685553  0.59003360  0.36568001    -0.02940
C1253       C  0.66677501  0.38253798  0.37153399    -0.02940
C1254       C  0.81724499  0.27441791  0.43726081     0.02670
C1255       C  0.78663079  0.28469425  0.42716977    -0.13470
C1256       C  0.77251991  0.31344951  0.43685907     0.00180
C1257       C  0.78878985  0.33021188  0.45921695    -0.12000
C1258       C  0.81656788  0.31767866  0.47335270     0.02670
C1259       C  0.83156859  0.29038969  0.46140064    -0.11420
H1260       H  0.77440214  0.27064389  0.41071663     0.08260
H1261       H  0.77997794  0.35331817  0.46583553     0.05790
H1262       H  0.85455171  0.28224136  0.47028962     0.05640
C1263       C  0.87562578  0.39302203  0.57293211    -0.02940
C1264       C  0.98120016  0.45810858  0.44180259     0.02670
C1265       C  0.96350139  0.48262367  0.42680855    -0.13470
C1266       C  0.93863462  0.49924089  0.44031637     0.00180
C1267       C  0.93152770  0.49099700  0.46930960    -0.12000
C1268       C  0.94569266  0.46417532  0.48354063     0.02670
C1269       C  0.97175456  0.44900540  0.47032920    -0.11420
H1270       H  0.96819330  0.48807104  0.40397468     0.08260
H1271       H  0.91196985  0.50313759  0.47958154     0.05790
H1272       H  0.98357853  0.42888531  0.48141474     0.05640
C1273       C  0.94542570  0.31160064  0.25421492     0.02670
C1274       C  0.97147902  0.32647642  0.26778063    -0.13470
C1275       C  0.98180100  0.31842479  0.29686261     0.00180
C1276       C  0.96617950  0.29477236  0.31210347    -0.12000
C1277       C  0.94321380  0.27630519  0.29776255     0.02670
C1278       C  0.93391146  0.28449849  0.26810548    -0.11420
H1279       H  0.98130683  0.34685841  0.25704612     0.08260
H1280       H  0.97140640  0.29169280  0.33555769     0.05790
H1281       H  0.91590529  0.27124680  0.25656867     0.05640
C1282       C  0.07554801  0.38769609  0.36949888    -0.02940
C1283       C  0.86798676  0.38808295  0.16259431    -0.02940
C1284       C  0.87525524  0.17430836  0.35994027    -0.02940
Zr1285     Zr  0.99284368  0.19089875  0.74600351     2.17510
O1286       O  0.02022334  0.14326151  0.72909335    -0.51790
O1287       O  0.95664139  0.16596871  0.77764127    -0.74990
O1288       O  0.02291211  0.16931386  0.78949428    -0.81780
O1289       O  0.93292878  0.20121239  0.68215871    -0.83520
O1290       O  0.04650274  0.21084064  0.81184943    -0.79140
O1291       O  0.95774318  0.16289522  0.71108044    -0.90780
O1292       O  0.92956860  0.20528276  0.80101071    -0.76740
O1293       O  0.99065121  0.22607774  0.78677043    -0.86230
O1294       O  0.94533265  0.22250242  0.74050288    -0.85920
O1295       O  0.04034742  0.22064766  0.74433509    -0.72680
O1296       O  0.99772653  0.21939577  0.70031510    -0.84820
Zr1297     Zr  0.99317264  0.31741868  0.73429808     2.26420
Zr1298     Zr  0.03615589  0.25731001  0.78383502     2.06270
Zr1299     Zr  0.95045581  0.25188215  0.69607478     2.10050
Zr1300     Zr  0.94324150  0.25699892  0.78136744     1.78760
O1301       O  0.94256306  0.23980801  0.64383906    -0.93620
O1302       O  0.94857200  0.26232991  0.83491192    -0.41430
O1303       O  0.94590797  0.28749308  0.73631066    -0.78060
O1304       O  0.98869934  0.28928396  0.78020096    -0.96750
O1305       O  0.04116864  0.28663952  0.73974999    -0.90050
O1306       O  0.99692448  0.28180942  0.69382454    -0.92890
C1307       C  0.93662072  0.17597283  0.79608969     1.00860
C1308       C  0.93780631  0.17247193  0.69033616     1.13790
C1309       C  0.03947872  0.18184174  0.81057705     1.04570
O1310       O  0.04416611  0.26737891  0.83633427    -0.95050
O1311       O  0.05160274  0.30782757  0.79993683    -0.90790
O1312       O  0.02514549  0.34552622  0.77160827    -0.83940
C1313       C  0.04505336  0.33649475  0.79256573     1.11210
O1314       O  0.07142099  0.20540411  0.67855899    -0.97020
Zr1315     Zr  0.04402778  0.25101916  0.69967001     1.88940
O1316       O  0.03339300  0.34201955  0.70778241    -0.73670
O1317       O  0.09315303  0.25111218  0.77903898    -0.52930
O1318       O  0.10016804  0.24956515  0.71390362    -0.97610
O1319       O  0.03844925  0.24907288  0.64579499    -0.54830
O1320       O  0.06134193  0.30321101  0.68439974    -0.74190
C1321       C  0.05457086  0.33230154  0.69046019     0.98160
O1322       O  0.96287511  0.36471941  0.74783170    -0.63010
O1323       O  0.89394681  0.26204683  0.70098165    -0.57810
O1324       O  0.96666192  0.33954696  0.68884867    -0.94490
O1325       O  0.94104632  0.29880136  0.66707442    -0.92920
O1326       O  0.88677911  0.25566567  0.76919703    -0.93270
O1327       O  0.91463580  0.30286011  0.80053160    -0.92060
C1328       C  0.94978980  0.32745890  0.66765796     1.17000
H1329       H  0.92672939  0.20978012  0.73955719     0.32940
H1330       H  0.98792557  0.30392491  0.79646914     0.43800
H1331       H  0.99868738  0.29240704  0.67499590     0.37320
H1332       H  0.05874005  0.20670300  0.74737533     0.33800
H1333       H  0.92891705  0.25366419  0.84249251     0.25590
H1334       H  0.10237041  0.26438030  0.79491862     0.31530
H1335       H  0.11025021  0.26205467  0.69838307     0.37440
H1336       H  0.87692957  0.25199375  0.78840703     0.31900
H1337       H  0.88589496  0.26827978  0.68083255     0.30770
H1338       H  0.91997050  0.24508722  0.63904557     0.32450
H1339       H  0.03829553  0.27143353  0.63889428     0.31420
H1340       H  0.92382012  0.32130986  0.79064974     0.35420
H1341       H  0.94058906  0.35940304  0.74334733     0.28150
H1342       H  0.01402807  0.12626669  0.74279710     0.32390
H1343       H  0.08794033  0.21429497  0.66624037     0.35240
H1344       H  0.88516919  0.24087393  0.70438599     0.27850
H1345       H  0.96459827  0.36513201  0.76973130     0.40720
H1346       H  0.02274233  0.27320607  0.84292786     0.30770
H1347       H  0.96531434  0.24649924  0.84112152     0.38390
H1348       H  0.01652903  0.24227567  0.64175622     0.30240
H1349       H  0.09854277  0.22904891  0.78552975     0.30300
H1350       H  0.04283353  0.14653478  0.73420963     0.30570
C1351       C  0.01213636  0.07889318  0.05460621     0.02670
C1352       C  0.02785272  0.05206666  0.06689715    -0.13470
C1353       C  0.04556086  0.03171777  0.04926140     0.00180
C1354       C  0.05056556  0.04113085  0.02005653    -0.12000
C1355       C  0.04292782  0.07223157  0.01067404     0.02670
C1356       C  0.02149759  0.09065391  0.02708765    -0.11420
H1357       H  0.02441976  0.04604986  0.08989445     0.08260
H1358       H  0.06266518  0.02532350  0.00524686     0.05790
H1359       H  0.01241121  0.11342320  0.01870127     0.05640
C1360       C  0.17302673  0.20083974  0.00439175     0.02670
C1361       C  0.19871674  0.18410357  0.01844192    -0.13470
C1362       C  0.21136470  0.19374331  0.04588545     0.00180
C1363       C  0.19686573  0.22001744  0.05975137    -0.12000
C1364       C  0.17204416  0.23850247  0.04525799     0.02670
C1365       C  0.16122558  0.22893946  0.01698784    -0.11420
H1366       H  0.20845219  0.16299443  0.00826526     0.08260
H1367       H  0.20531182  0.22625534  0.08178719     0.05790
H1368       H  0.14317906  0.24286982  0.00474262     0.05640
C1369       C  0.03802997  0.24534567  0.18884502     0.02670
C1370       C  0.00806218  0.23657508  0.17847307    -0.13470
C1371       C  0.99523319  0.20790388  0.18777674     0.00180
C1372       C  0.01190869  0.18983600  0.21032340    -0.12000
C1373       C  0.04005030  0.20082674  0.22416041     0.02670
C1374       C  0.05283466  0.22875458  0.21290723    -0.11420
H1375       H  0.99575705  0.25123254  0.16167377     0.08260
H1376       H  0.00312377  0.16708552  0.21696511     0.05790
H1377       H  0.07520505  0.23688409  0.22195476     0.05640
C1378       C  0.18064946  0.02601485  0.18216241     0.02670
C1379       C  0.20313788  0.04488899  0.16979732    -0.13470
C1380       C  0.21330635  0.07194917  0.18443009     0.00180
C1381       C  0.19875700  0.08180670  0.21012386    -0.12000
C1382       C  0.17606371  0.06296198  0.22305002     0.02670
C1383       C  0.16802250  0.03432501  0.20943754    -0.11420
H1384       H  0.21288632  0.03849376  0.14874900     0.08260
H1385       H  0.20573716  0.10371035  0.22047687     0.05790
H1386       H  0.15068596  0.01937616  0.21912189     0.05640
C1387       C  0.11333422  0.12816191  0.32166261    -0.02940
C1388       C  0.11446412  0.33673488  0.12153187    -0.02940
C1389       C  0.11026607  0.92738292  0.11804320    -0.02940
C1390       C  0.11273255  0.12368630  0.91004102    -0.02940
C1391       C  0.90625776  0.12917760  0.12248851    -0.02940
C1392       C  0.31526804  0.12623584  0.11782342    -0.02940
C1393       C  0.16601059  0.10208487  0.29736425    -0.02300
C1394       C  0.13178651  0.10548878  0.29949041     0.07380
C1395       C  0.11346611  0.09078108  0.27589626    -0.02420
C1396       C  0.12772631  0.07803789  0.25095444    -0.02420
C1397       C  0.16063202  0.07405526  0.25032872     0.07510
C1398       C  0.17925259  0.08354654  0.27476441    -0.02610
Br1399     Br  0.22404720  0.07213693  0.27587494    -0.01160
Br1400     Br  0.19806501  0.12672610  0.31807384    -0.01230
Br1401     Br  0.10120480  0.06815223  0.21673747    -0.01190
Br1402     Br  0.06821386  0.08482369  0.27662842    -0.01180
C1403       C  0.16642940  0.94997393  0.13935032    -0.02300
C1404       C  0.13214132  0.95155798  0.13565578     0.07380
C1405       C  0.11746113  0.98085055  0.14574227    -0.02420
C1406       C  0.13546085  0.00639793  0.15369723    -0.02420
C1407       C  0.16616992  0.00103566  0.16427038     0.07510
C1408       C  0.18217915  0.97289087  0.15685776    -0.02610
Br1409     Br  0.22641919  0.96791488  0.16831318    -0.01160
Br1410     Br  0.19494456  0.92272885  0.11804258    -0.01230
Br1411     Br  0.11897140  0.04913792  0.14662589    -0.01190
Br1412     Br  0.07405857  0.98793042  0.15601315    -0.01180
C1413       C  0.29061761  0.07958781  0.15002181    -0.02300
C1414       C  0.29075814  0.11229192  0.13981986     0.07380
C1415       C  0.26406610  0.13220560  0.14849126    -0.02420
C1416       C  0.23800024  0.11893385  0.16178557    -0.02420
C1417       C  0.24070205  0.08813645  0.17324764     0.07510
C1418       C  0.26883344  0.07052506  0.17073962    -0.02610
Br1419     Br  0.27615097  0.03246286  0.19464314    -0.01160
Br1420     Br  0.31060566  0.04250710  0.13259269    -0.01230
Br1421     Br  0.19825984  0.14266324  0.16356460    -0.01190
Br1422     Br  0.26215431  0.17814058  0.14566219    -0.01180
C1423       C  0.07952736  0.25755012  0.15316416    -0.02300
C1424       C  0.05613590  0.26858533  0.17178959     0.07380
C1425       C  0.05187332  0.30110857  0.17565990    -0.02420
C1426       C  0.07210617  0.32278221  0.16222998    -0.02420
C1427       C  0.09679960  0.31245843  0.14276792     0.07510
C1428       C  0.10143108  0.27836269  0.14144371    -0.02610
Br1429     Br  0.14117850  0.25670121  0.13461610    -0.01160
Br1430     Br  0.08065763  0.21314142  0.14253195    -0.01230
Br1431     Br  0.06555008  0.36541250  0.17491772    -0.01190
Br1432     Br  0.01613373  0.31556150  0.19802628    -0.01180
C1433       C  0.08973779  0.17524941  0.24783152    -0.02300
C1434       C  0.05735901  0.18264123  0.24919637     0.07380
C1435       C  0.04214380  0.17360187  0.27494643    -0.02420
C1436       C  0.05800627  0.15469481  0.29753287    -0.02420
C1437       C  0.09232518  0.15060837  0.29863447     0.07510
C1438       C  0.10735383  0.16371963  0.27301007    -0.02610
Br1439     Br  0.15239614  0.16942528  0.27052987    -0.01160
Br1440     Br  0.11016536  0.17806563  0.21032392    -0.01230
Br1441     Br  0.02856708  0.13119256  0.32077719    -0.01190
Br1442     Br  0.99872054  0.18692384  0.27921858    -0.01180
C1443       C  0.96224331  0.19641137  0.14102886    -0.02300
C1444       C  0.96608949  0.19546851  0.17218294     0.07380
C1445       C  0.94175868  0.18177122  0.18808888    -0.02420
C1446       C  0.91929023  0.16194104  0.17373041    -0.02420
C1447       C  0.91906247  0.15836839  0.14188678     0.07510
C1448       C  0.93603695  0.18251953  0.12712078    -0.02610
Br1449     Br  0.91982722  0.20587783  0.09255347    -0.01160
Br1450     Br  0.99440276  0.21114220  0.11529454    -0.01230
Br1451     Br  0.88724603  0.14692778  0.19944241    -0.01190
Br1452     Br  0.93754228  0.19296733  0.22910270    -0.01180
C1453       C  0.16243014  0.15671242  0.93278657    -0.02300
C1454       C  0.12878171  0.14986205  0.93093914     0.07380
C1455       C  0.11045189  0.16416027  0.95411409    -0.02420
C1456       C  0.12554928  0.17782188  0.97888259    -0.02420
C1457       C  0.15692305  0.18712821  0.97781027     0.07510
C1458       C  0.17396437  0.17941108  0.95290515    -0.02610
Br1459     Br  0.21466712  0.19811617  0.94802391    -0.01160
Br1460     Br  0.19737513  0.13200081  0.91678190    -0.01230
Br1461     Br  0.10437089  0.17866651  0.01591547    -0.01190
Br1462     Br  0.06445157  0.16567428  0.95492017    -0.01180
C1463       C  0.11518168  0.30506733  0.07143999    -0.02300
C1464       C  0.13223920  0.31739778  0.09615599     0.07380
C1465       C  0.16603915  0.30878064  0.09683138    -0.02420
C1466       C  0.17838225  0.28833336  0.07529125    -0.02420
C1467       C  0.15830066  0.26790194  0.05960774     0.07510
C1468       C  0.12559247  0.27656881  0.05870141    -0.02610
Br1469     Br  0.09287349  0.25225212  0.04058480    -0.01160
Br1470     Br  0.09643666  0.33362598  0.04165312    -0.01230
Br1471     Br  0.22279940  0.28933062  0.06718394    -0.01190
Br1472     Br  0.19736889  0.31543542  0.12877729    -0.01180
C1473       C  0.23764806  0.14403587  0.06866365    -0.02300
C1474       C  0.23944260  0.17594149  0.06019169     0.07380
C1475       C  0.26835785  0.19077276  0.06487569    -0.02420
C1476       C  0.29265020  0.17701519  0.08387062    -0.02420
C1477       C  0.29221861  0.14363269  0.09269741     0.07510
C1478       C  0.26432531  0.12733966  0.08170024    -0.02610
Br1479     Br  0.25998315  0.08175323  0.08411590    -0.01160
Br1480     Br  0.19756415  0.12333461  0.06356924    -0.01230
Br1481     Br  0.31882567  0.20970873  0.10105370    -0.01190
Br1482     Br  0.27471188  0.23046490  0.04447748    -0.01180
C1483       C  0.09164618  0.08992620  0.98687394    -0.02300
C1484       C  0.05923330  0.08459422  0.98455546     0.07380
C1485       C  0.04366216  0.08711132  0.95700662    -0.02420
C1486       C  0.05965249  0.09712250  0.93163470    -0.02420
C1487       C  0.09384967  0.10222449  0.93295697     0.07510
C1488       C  0.10926839  0.09446484  0.96141734    -0.02610
Br1489     Br  0.15480708  0.09158276  0.96823572    -0.01160
Br1490     Br  0.11089727  0.09638339  0.02579111    -0.01230
Br1491     Br  0.02936027  0.10678946  0.89949929    -0.01190
Br1492     Br  0.99876946  0.07937202  0.95563636    -0.01180
C1493       C  0.09272648  0.99564997  0.06062710    -0.02300
C1494       C  0.06007882  0.00195429  0.06242462     0.07380
C1495       C  0.04200066  0.98184117  0.07980349    -0.02420
C1496       C  0.05638727  0.95684790  0.09703480    -0.02420
C1497       C  0.09028185  0.95089276  0.09664887     0.07510
C1498       C  0.10774975  0.97162724  0.07802723    -0.02610
Br1499     Br  0.15269846  0.96572106  0.07156898    -0.01160
Br1500     Br  0.11858707  0.01900126  0.03391787    -0.01230
Br1501     Br  0.02737537  0.93785346  0.12442436    -0.01190
Br1502     Br  0.99653796  0.98919626  0.08118888    -0.01180
C1503       C  0.93406203  0.08266612  0.09258890    -0.02300
C1504       C  0.93661349  0.11014172  0.11057676     0.07380
C1505       C  0.96862234  0.12059865  0.11470197    -0.02420
C1506       C  0.99132842  0.11447897  0.09328389    -0.02420
C1507       C  0.98541845  0.09230824  0.07117875     0.07510
C1508       C  0.95717046  0.07546147  0.07178790    -0.02610
Br1509     Br  0.94974972  0.04210662  0.04393936    -0.01160
Br1510     Br  0.91047605  0.04673600  0.10453950    -0.01230
Br1511     Br  0.03251345  0.13318390  0.09642375    -0.01190
Br1512     Br  0.98805584  0.12625746  0.15353152    -0.01180
C1513       C  0.05246054  0.17825421  0.86382777    -0.02300
C1514       C  0.05155468  0.16324777  0.83630063     0.07380
C1515       C  0.06642398  0.13363173  0.83371273    -0.02420
C1516       C  0.08071222  0.11919469  0.85912449    -0.02420
C1517       C  0.08903951  0.13804963  0.88517403     0.07510
C1518       C  0.07648625  0.17010269  0.88450892    -0.02610
Br1519     Br  0.09487506  0.20787202  0.90153970    -0.01160
Br1520     Br  0.02112146  0.21026907  0.87350780    -0.01230
Br1521     Br  0.08344713  0.07323289  0.85710098    -0.01190
Br1522     Br  0.06728980  0.11267678  0.79589296    -0.01180
C1523       C  0.89520472  0.24459439  0.30851777    -0.02300
C1524       C  0.92764796  0.24967846  0.31384181     0.07380
C1525       C  0.94529059  0.22677435  0.33145829    -0.02420
C1526       C  0.93056598  0.19959074  0.34290114    -0.02420
C1527       C  0.89667912  0.19624883  0.33976891     0.07510
C1528       C  0.88203729  0.21591026  0.31685297    -0.02610
Br1529     Br  0.85179186  0.20029700  0.28747114    -0.01160
Br1530     Br  0.86656888  0.27775235  0.29246647    -0.01230
Br1531     Br  0.96032623  0.16468385  0.35285376    -0.01190
Br1532     Br  0.99019257  0.23147888  0.34074944    -0.01180
C1533       C  0.89447868  0.33097180  0.18297915    -0.02300
C1534       C  0.89066809  0.36543320  0.18398625     0.07380
C1535       C  0.90555964  0.37923867  0.21015064    -0.02420
C1536       C  0.91728192  0.36049401  0.23404467    -0.02420
C1537       C  0.92636162  0.32877892  0.22983674     0.07510
C1538       C  0.91592505  0.31446941  0.20334651    -0.02610
Br1539     Br  0.93095695  0.27209222  0.19483565    -0.01160
Br1540     Br  0.86866246  0.30241328  0.15941911    -0.01230
Br1541     Br  0.91823429  0.37864683  0.27332851    -0.01190
Br1542     Br  0.91660774  0.42314693  0.21465760    -0.01180
C1543       C  0.99551176  0.35818722  0.33553395    -0.02300
C1544       C  0.00535073  0.33827529  0.31282369     0.07380
C1545       C  0.03634189  0.34089806  0.30296283    -0.02420
C1546       C  0.05797133  0.36129693  0.31740779    -0.02420
C1547       C  0.05004010  0.37655846  0.34452745     0.07510
C1548       C  0.01639765  0.38003594  0.34796389    -0.02610
Br1549     Br  0.99514402  0.42032370  0.35547104    -0.01160
Br1550     Br  0.95230266  0.35815869  0.34832881    -0.01230
Br1551     Br  0.09087522  0.37565063  0.29273770    -0.01190
Br1552     Br  0.05058848  0.31365984  0.27179275    -0.01180
C1553       C  0.03293180  0.39013363  0.41125629    -0.02300
C1554       C  0.05605810  0.40632678  0.39431988     0.07380
C1555       C  0.05772733  0.43966871  0.40017022    -0.02420
C1556       C  0.03233843  0.45643879  0.41329441    -0.02420
C1557       C  0.00764332  0.44031952  0.42669595     0.07510
C1558       C  0.00848433  0.40689329  0.42571559    -0.02610
Br1559     Br  0.97212975  0.38373706  0.43811289    -0.01160
Br1560     Br  0.03228803  0.34465574  0.41576098    -0.01230
Br1561     Br  0.03080652  0.50215242  0.41039270    -0.01190
Br1562     Br  0.09694533  0.46208013  0.40072898    -0.01180
C1563       C  0.91973076  0.37343674  0.64663260    -0.02300
C1564       C  0.93852749  0.34661201  0.64178853     0.07380
C1565       C  0.93656564  0.33204885  0.61363872    -0.02420
C1566       C  0.91462407  0.34366255  0.59127279    -0.02420
C1567       C  0.89459347  0.37091692  0.59704596     0.07510
C1568       C  0.89345312  0.37841607  0.62783150    -0.02610
Br1569     Br  0.85663790  0.36840470  0.64950849    -0.01160
Br1570     Br  0.92163048  0.39602360  0.68354676    -0.01230
Br1571     Br  0.90903671  0.31572577  0.55806491    -0.01190
Br1572     Br  0.96504104  0.29660208  0.60546138    -0.01180
C1573       C  0.88042828  0.43691778  0.53278449    -0.02300
C1574       C  0.89642086  0.41746170  0.55525282     0.07380
C1575       C  0.93059941  0.42008174  0.55678823    -0.02420
C1576       C  0.94619348  0.43812221  0.53507917    -0.02420
C1577       C  0.92952450  0.44982650  0.50939157     0.07510
C1578       C  0.89634050  0.44758985  0.50813655    -0.02610
Br1579     Br  0.87193666  0.45223762  0.47087844    -0.01160
Br1580     Br  0.83636210  0.44936195  0.53281109    -0.01230
Br1581     Br  0.99061446  0.44681977  0.54057285    -0.01190
Br1582     Br  0.95850937  0.40133171  0.58732202    -0.01180
C1583       C  0.83748052  0.34700979  0.55206145    -0.02300
C1584       C  0.86076259  0.37044102  0.54718991     0.07380
C1585       C  0.87290331  0.36928157  0.51732150    -0.02420
C1586       C  0.85609833  0.35542840  0.49350569    -0.02420
C1587       C  0.83133887  0.33543539  0.49868273     0.07510
C1588       C  0.82182336  0.33149362  0.52797019    -0.02610
Br1589     Br  0.78553696  0.30620224  0.53467512    -0.01160
Br1590     Br  0.82849837  0.33175682  0.59095648    -0.01230
Br1591     Br  0.86814068  0.36257106  0.45302505    -0.01190
Br1592     Br  0.91735471  0.37165260  0.50829979    -0.01180
C1593       C  0.84329524  0.25463558  0.39157408    -0.02300
C1594       C  0.83414870  0.24851111  0.42047417     0.07380
C1595       C  0.83593103  0.21678205  0.43039008    -0.02420
C1596       C  0.84766606  0.19197407  0.41184978    -0.02420
C1597       C  0.85484275  0.19800626  0.38094920     0.07510
C1598       C  0.84633538  0.22973429  0.37134420    -0.02610
Br1599     Br  0.81547828  0.23673376  0.33946990    -0.01160
Br1600     Br  0.84796964  0.29755002  0.37785485    -0.01230
Br1601     Br  0.84867913  0.15039024  0.43010770    -0.01190
Br1602     Br  0.82250315  0.20800646  0.46999190    -0.01180
C1603       C  0.69143259  0.35870444  0.42536589    -0.02300
C1604       C  0.68688494  0.35811384  0.39341399     0.07380
C1605       C  0.70594416  0.33402402  0.37978263    -0.02420
C1606       C  0.73527764  0.32418371  0.39217334    -0.02420
C1607       C  0.74169701  0.32669567  0.42283340     0.07510
C1608       C  0.71787525  0.34180138  0.43962636    -0.02610
Br1609     Br  0.72097334  0.33896595  0.48246812    -0.01160
Br1610     Br  0.66170854  0.37725968  0.45232263    -0.01230
Br1611     Br  0.76649081  0.31209490  0.36412101    -0.01190
Br1612     Br  0.68862194  0.30046738  0.35588510    -0.01180
C1613       C  0.88315989  0.57007389  0.41886980    -0.02300
C1614       C  0.87737839  0.56610814  0.38735577     0.07380
C1615       C  0.88966858  0.53610105  0.37617824    -0.02420
C1616       C  0.90454653  0.51310925  0.39510814    -0.02420
C1617       C  0.91705638  0.52190751  0.42284203     0.07510
C1618       C  0.90700630  0.55136112  0.43416558    -0.02610
Br1619     Br  0.92635484  0.56712830  0.47031906    -0.01160
Br1620     Br  0.85676071  0.59430387  0.44526987    -0.01230
Br1621     Br  0.90615852  0.46903754  0.38302137    -0.01190
Br1622     Br  0.89358067  0.52564983  0.33490433    -0.01180
C1623       C  0.81239181  0.54133107  0.30317697    -0.02300
C1624       C  0.80395606  0.51494340  0.31950147     0.07380
C1625       C  0.80681300  0.51575030  0.35040489    -0.02420
C1626       C  0.81813472  0.54306371  0.36438290    -0.02420
C1627       C  0.83437043  0.56686619  0.34790975     0.07510
C1628       C  0.83248639  0.56352245  0.31588890    -0.02610
Br1629     Br  0.86162765  0.57840387  0.28648249    -0.01160
Br1630     Br  0.79633907  0.54710164  0.26307654    -0.01230
Br1631     Br  0.81054811  0.54590697  0.40619107    -0.01190
Br1632     Br  0.79672557  0.47896140  0.37378810    -0.01180
C1633       C  0.82192394  0.40087302  0.23536198    -0.02300
C1634       C  0.82099851  0.43368702  0.24004856     0.07380
C1635       C  0.83724673  0.45297722  0.22005156    -0.02420
C1636       C  0.84963178  0.44044449  0.19347125    -0.02420
C1637       C  0.84775953  0.40675871  0.18677938     0.07510
C1638       C  0.83275120  0.38791591  0.20890235    -0.02610
Br1639     Br  0.82435384  0.34324118  0.20428891    -0.01160
Br1640     Br  0.81398357  0.37227010  0.26791717    -0.01230
Br1641     Br  0.87344793  0.47168920  0.17157297    -0.01190
Br1642     Br  0.84808477  0.49602743  0.23076548    -0.01180
C1643       C  0.74327877  0.40845073  0.33309174    -0.02300
C1644       C  0.73086962  0.42855153  0.31018079     0.07380
C1645       C  0.69937955  0.43975596  0.31146738    -0.02420
C1646       C  0.68028607  0.42997425  0.33454347    -0.02420
C1647       C  0.69064634  0.40434145  0.35427121     0.07510
C1648       C  0.72437939  0.39961605  0.35653956    -0.02610
Br1649     Br  0.74783509  0.39759277  0.39417551    -0.01160
Br1650     Br  0.78809000  0.39739709  0.33549290    -0.01230
Br1651     Br  0.65283997  0.46469446  0.34680923    -0.01190
Br1652     Br  0.68364764  0.47293114  0.28457258    -0.01180
C1653       C  0.10757118  0.39935487  0.67598446    -0.02300
C1654       C  0.10179081  0.40595487  0.64487404     0.07380
C1655       C  0.07539414  0.38954119  0.63121763    -0.02420
C1656       C  0.05836142  0.36800153  0.64770172    -0.02420
C1657       C  0.07054927  0.35713432  0.67506887     0.07510
C1658       C  0.09615922  0.37174227  0.68856958    -0.02610
Br1659     Br  0.12114608  0.34904957  0.71904011    -0.01160
Br1660     Br  0.11642977  0.43017516  0.70601277    -0.01230
Br1661     Br  0.02024136  0.34987935  0.63156860    -0.01190
Br1662     Br  0.06308122  0.39000431  0.58947539    -0.01180
C1663       C  0.15196299  0.47973391  0.63472192    -0.02300
C1664       C  0.14949703  0.44630620  0.64204817     0.07380
C1665       C  0.17025253  0.43525203  0.66585302    -0.02420
C1666       C  0.18196823  0.45676199  0.68692530    -0.02420
C1667       C  0.17919140  0.48963076  0.68183669     0.07510
C1668       C  0.16417021  0.50096760  0.65560995    -0.02610
Br1669     Br  0.15970558  0.54634910  0.64849856    -0.01160
Br1670     Br  0.14891796  0.49767043  0.59470043    -0.01230
Br1671     Br  0.19472319  0.44048609  0.72545309    -0.01190
Br1672     Br  0.18371084  0.39136501  0.67183284    -0.03420
C1673       C  0.16299396  0.57589012  0.81328035    -0.02300
C1674       C  0.14640584  0.60441121  0.80215552     0.07380
C1675       C  0.15843262  0.61573563  0.77482377    -0.02420
C1676       C  0.16944470  0.59412189  0.75434887    -0.02420
C1677       C  0.18440069  0.56622492  0.76472641     0.07510
C1678       C  0.18576871  0.56070907  0.79551685    -0.02610
Br1679     Br  0.22544133  0.54674614  0.81430919    -0.01160
Br1680     Br  0.16118285  0.55869900  0.85314873    -0.01230
Br1681     Br  0.16435725  0.60340301  0.71247525    -0.01190
Br1682     Br  0.16666312  0.65930467  0.76565881    -0.01180
C1683       C  0.26811186  0.59986494  0.68919283    -0.02300
C1684       C  0.26631868  0.56634785  0.68923465     0.07380
C1685       C  0.28654884  0.54933999  0.67063096    -0.02420
C1686       C  0.30290129  0.56486391  0.64862065    -0.02420
C1687       C  0.30978565  0.59755333  0.65143029     0.07510
C1688       C  0.29044554  0.61527304  0.67195332    -0.02610
Br1689     Br  0.29108102  0.66170784  0.67641897    -0.01160
Br1690     Br  0.23902577  0.62652271  0.71057419    -0.01230
Br1691     Br  0.31032306  0.54030732  0.61361959    -0.01190
Br1692     Br  0.29527499  0.50468016  0.67667886    -0.01180
C1693       C  0.07239341  0.60723787  0.48912107    -0.02300
C1694       C  0.07027275  0.57430413  0.48907541     0.07380
C1695       C  0.08286511  0.55741851  0.46544939    -0.02420
C1696       C  0.09438503  0.57331605  0.44053135    -0.02420
C1697       C  0.09681840  0.60751082  0.43975163     0.07510
C1698       C  0.08157437  0.62365849  0.46376416    -0.02610
Br1699     Br  0.05811316  0.66362616  0.45950059    -0.01160
Br1700     Br  0.06263747  0.63030928  0.52467762    -0.01230
Br1701     Br  0.09805116  0.54589168  0.40661511    -0.01190
Br1702     Br  0.08517768  0.51173937  0.46715872    -0.01180
C1703       C  0.06866471  0.49466697  0.59993019    -0.02300
C1704       C  0.06563816  0.49226949  0.56917634     0.07380
C1705       C  0.08046058  0.46596360  0.55565309    -0.02420
C1706       C  0.10220492  0.44540734  0.57183749    -0.02420
C1707       C  0.10381599  0.44592300  0.60370665     0.07510
C1708       C  0.08382093  0.47005915  0.61693206    -0.02610
Br1709     Br  0.07673933  0.47330492  0.65852207    -0.01160
Br1710     Br  0.05532655  0.53374282  0.61900190    -0.01230
Br1711     Br  0.12781265  0.41750847  0.54822255    -0.01190
Br1712     Br  0.06827753  0.45561543  0.51551960    -0.01180
C1713       C  0.30194340  0.62645754  0.57363946    -0.02300
C1714       C  0.30517231  0.63070112  0.60543431     0.07380
C1715       C  0.27546520  0.64243427  0.61463243    -0.02420
C1716       C  0.26036490  0.66816158  0.59999047    -0.02420
C1717       C  0.26027450  0.66931259  0.56869431     0.07510
C1718       C  0.28277323  0.64849992  0.55574425    -0.02610
Br1719     Br  0.29255569  0.65419649  0.51492539    -0.01160
Br1720     Br  0.31497280  0.58845144  0.55326501    -0.01230
Br1721     Br  0.23431278  0.69327124  0.62467376    -0.01190
Br1722     Br  0.24345396  0.61051603  0.61728933    -0.01180
C1723       C  0.14224460  0.68274405  0.47664980    -0.02300
C1724       C  0.17432168  0.67363133  0.48341585     0.07380
C1725       C  0.18907590  0.65427323  0.46192600    -0.02420
C1726       C  0.17252102  0.64530202  0.43533171    -0.02420
C1727       C  0.13877637  0.65008467  0.43164146     0.07510
C1728       C  0.12748961  0.67547772  0.44907989    -0.02610
Br1729     Br  0.10587910  0.71149395  0.42965081    -0.01160
Br1730     Br  0.11540962  0.70217089  0.50545575    -0.01230
Br1731     Br  0.19984911  0.63920709  0.40209467    -0.01190
Br1732     Br  0.23187864  0.63798341  0.46749934    -0.01180
C1733       C  0.16828484  0.78891163  0.54533788    -0.02300
C1734       C  0.18164482  0.76088334  0.55862423     0.07380
C1735       C  0.17467736  0.75548981  0.58811520    -0.02420
C1736       C  0.16439760  0.78056669  0.60576654    -0.02420
C1737       C  0.14619413  0.80696645  0.59281991     0.07510
C1738       C  0.14651859  0.80856513  0.56086952    -0.02610
Br1739     Br  0.11380238  0.82924990  0.53602950    -0.01160
Br1740     Br  0.18040765  0.80162630  0.50683704    -0.01230
Br1741     Br  0.17357411  0.77362651  0.64718004    -0.01190
Br1742     Br  0.16421890  0.71306096  0.59987299    -0.01180
C1743       C  0.94362933  0.57167712  0.59781964    -0.02300
C1744       C  0.93050759  0.60351952  0.59359281     0.07380
C1745       C  0.93354256  0.61508210  0.56348327    -0.02420
C1746       C  0.95783448  0.60194756  0.54532587    -0.02420
C1747       C  0.97167732  0.57100214  0.55191633     0.07510
C1748       C  0.95660714  0.55498114  0.57438795    -0.02610
Br1749     Br  0.94584773  0.51153392  0.56952843    -0.01160
Br1750     Br  0.95362400  0.55029169  0.63491853    -0.01230
Br1751     Br  0.97025340  0.62862046  0.51312686    -0.01190
Br1752     Br  0.90199350  0.64149301  0.54205546    -0.01180
C1753       C  0.95588772  0.67921594  0.68066713    -0.02300
C1754       C  0.98786867  0.67734756  0.67434411     0.07380
C1755       C  0.99758056  0.65408857  0.65466864    -0.02420
C1756       C  0.97555818  0.63729466  0.63671842    -0.02420
C1757       C  0.94143627  0.63919380  0.64127496     0.07510
C1758       C  0.93308163  0.66124797  0.66459255    -0.02610
Br1759     Br  0.89105649  0.66883333  0.67755783    -0.01160
Br1760     Br  0.94422075  0.70443936  0.71429533    -0.01230
Br1761     Br  0.99733414  0.61874949  0.60403485    -0.01190
Br1762     Br  0.04239369  0.64360020  0.65418863    -0.01180
C1763       C  0.06723242  0.79687715  0.67330821    -0.02300
C1764       C  0.06814271  0.76399465  0.66791293     0.07380
C1765       C  0.08436023  0.75314256  0.64343460    -0.02420
C1766       C  0.09795565  0.77448924  0.62383602    -0.02420
C1767       C  0.10352385  0.80719648  0.63202127     0.07510
C1768       C  0.08393810  0.81844667  0.65544796    -0.02610
Br1769     Br  0.07691658  0.86324279  0.66323332    -0.01160
Br1770     Br  0.04288758  0.81223187  0.70565841    -0.01230
Br1771     Br  0.09660666  0.75880570  0.58322166    -0.01190
Br1772     Br  0.08788098  0.70819022  0.63601609    -0.01180
C1773       C  0.07436529  0.66760319  0.80500626    -0.02300
C1774       C  0.09803400  0.64445634  0.79731603     0.07380
C1775       C  0.09651334  0.63792497  0.76616034    -0.02420
C1776       C  0.08855775  0.66197944  0.74552624    -0.02420
C1777       C  0.07026339  0.68808962  0.75375244     0.07510
C1778       C  0.06281004  0.69066885  0.78364628    -0.02610
Br1779     Br  0.03637252  0.72565996  0.79483672    -0.01160
Br1780     Br  0.04261235  0.65621596  0.83224843    -0.01230
Br1781     Br  0.10140393  0.65801175  0.70528785    -0.01190
Br1782     Br  0.09163150  0.59637501  0.74961934    -0.01180
C1783       C  0.86108534  0.13532453  0.67739428    -0.02300
C1784       C  0.85706615  0.13626158  0.64506230     0.07380
C1785       C  0.88516727  0.14437798  0.62939327    -0.02420
C1786       C  0.91357129  0.15186029  0.64458578    -0.02420
C1787       C  0.91613143  0.15072081  0.67537170     0.07510
C1788       C  0.89115179  0.13989944  0.69126122    -0.02610
Br1789     Br  0.90071774  0.12793629  0.73219542    -0.01160
Br1790     Br  0.83026150  0.12386883  0.70642841    -0.01230
Br1791     Br  0.95080455  0.16306838  0.62358747    -0.01190
Br1792     Br  0.88732686  0.14603214  0.58653413    -0.01180
C1793       C  0.64564702  0.17221401  0.49101303    -0.02300
C1794       C  0.67729485  0.17950260  0.48706182     0.07380
C1795       C  0.69153111  0.16837692  0.46125451    -0.02420
C1796       C  0.67540046  0.14765756  0.44155551    -0.02420
C1797       C  0.64122897  0.14534495  0.44187978     0.07510
C1798       C  0.62714829  0.15976562  0.46754110    -0.02610
Br1799     Br  0.58215286  0.16709310  0.47155372    -0.01160
Br1800     Br  0.62764203  0.17664800  0.52967277    -0.01230
Br1801     Br  0.70414189  0.11907501  0.42122077    -0.01190
Br1802     Br  0.73361841  0.18153914  0.45254051    -0.01180
C1803       C  0.66306493  0.29302723  0.54900606    -0.02300
C1804       C  0.68277076  0.26852736  0.56289355     0.07380
C1805       C  0.68711366  0.27036740  0.59391723    -0.02420
C1806       C  0.67911663  0.29829549  0.60816295    -0.02420
C1807       C  0.65197338  0.31704498  0.59810496     0.07510
C1808       C  0.64539436  0.31520104  0.56653461    -0.02610
Br1809     Br  0.61157391  0.33881813  0.54577784    -0.01160
Br1810     Br  0.65852404  0.29599089  0.50637973    -0.01230
Br1811     Br  0.71817193  0.31796358  0.61972480    -0.01190
Br1812     Br  0.70087502  0.23532991  0.61952865    -0.01180
C1813       C  0.75610061  0.14994893  0.57664442    -0.02300
C1814       C  0.76402321  0.17969079  0.56570679     0.07380
C1815       C  0.79407171  0.19091514  0.57372912    -0.02420
C1816       C  0.81421348  0.17448552  0.59515725    -0.02420
C1817       C  0.80898839  0.14144894  0.60266607     0.07510
C1818       C  0.77936442  0.12965308  0.59025992    -0.02610
Br1819     Br  0.76867432  0.08542563  0.58760953    -0.01160
Br1820     Br  0.71229468  0.13727798  0.57520102    -0.01230
Br1821     Br  0.84321069  0.20256950  0.61560296    -0.01190
Br1822     Br  0.80792204  0.22897059  0.55498337    -0.01180
C1823       C  0.60298665  0.07535214  0.49266099    -0.02300
C1824       C  0.57099385  0.06758660  0.49036294     0.07380
C1825       C  0.55352944  0.07850337  0.46462966    -0.02420
C1826       C  0.56660488  0.10009268  0.44420048    -0.02420
C1827       C  0.60049585  0.10339115  0.44316431     0.07510
C1828       C  0.61808613  0.08840192  0.46818463    -0.02610
Br1829     Br  0.66331322  0.08043242  0.46979102    -0.01160
Br1830     Br  0.62637981  0.07129536  0.53035047    -0.01230
Br1831     Br  0.53518593  0.12842080  0.42454768    -0.01190
Br1832     Br  0.51137260  0.06345948  0.45650034    -0.01180
C1833       C  0.48934185  0.10737383  0.56978260    -0.02300
C1834       C  0.48777331  0.07440339  0.56632334     0.07380
C1835       C  0.46315116  0.05875862  0.57959021    -0.02420
C1836       C  0.44519544  0.07421054  0.60085638    -0.02420
C1837       C  0.44206821  0.10851681  0.60066776     0.07510
C1838       C  0.46430193  0.12436373  0.58268554    -0.02610
Br1839     Br  0.46464102  0.16919079  0.57584635    -0.01160
Br1840     Br  0.52782736  0.12923702  0.56133266    -0.01230
Br1841     Br  0.43291007  0.04530881  0.63220179    -0.01190
Br1842     Br  0.45390043  0.01574473  0.56948677    -0.01180
C1843       C  0.57847600  0.95899760  0.56863854    -0.02300
C1844       C  0.57146046  0.98931215  0.57951529     0.07380
C1845       C  0.57740210  0.99450526  0.61000506    -0.02420
C1846       C  0.59018277  0.96995439  0.62902241    -0.02420
C1847       C  0.60349233  0.94056006  0.61753910     0.07510
C1848       C  0.59692356  0.93619114  0.58585385    -0.02610
Br1849     Br  0.61666045  0.90502139  0.56056503    -0.01160
Br1850     Br  0.56206214  0.94879880  0.52931640    -0.01230
Br1851     Br  0.59072240  0.97970779  0.67113812    -0.01190
Br1852     Br  0.57013283  0.03655937  0.62610812    -0.01180
C1853       C  0.47797929  0.13468871  0.64820431    -0.02300
C1854       C  0.44471275  0.14336772  0.64676042     0.07380
C1855       C  0.43637431  0.16799827  0.66712833    -0.02420
C1856       C  0.46029425  0.18713504  0.68088553    -0.02420
C1857       C  0.49275006  0.18169619  0.67565845     0.07510
C1858       C  0.50098639  0.15572864  0.65832574    -0.02610
Br1859     Br  0.54473134  0.14746508  0.64920999    -0.01160
Br1860     Br  0.49374832  0.09128967  0.64981468    -0.01230
Br1861     Br  0.44865712  0.22427700  0.70278777    -0.01190
Br1862     Br  0.39278143  0.17701148  0.67647481    -0.01180
C1863       C  0.59937216  0.17899781  0.80800556    -0.02300
C1864       C  0.60294875  0.14484679  0.80887553     0.07380
C1865       C  0.58692631  0.12919402  0.78465669    -0.02420
C1866       C  0.57901246  0.14514390  0.75797433    -0.02420
C1867       C  0.57710807  0.17823986  0.75682446     0.07510
C1868       C  0.58748792  0.19513640  0.78196334    -0.02610
Br1869     Br  0.58576730  0.24090919  0.78083706    -0.01160
Br1870     Br  0.60209360  0.20520430  0.84300332    -0.01230
Br1871     Br  0.57145691  0.12070613  0.72259125    -0.01190
Br1872     Br  0.56166582  0.09206651  0.78924024    -0.01180
C1873       C  0.58609888  0.28751653  0.68578555    -0.02300
C1874       C  0.58461080  0.25682119  0.67464361     0.07380
C1875       C  0.60264911  0.24895048  0.65064278    -0.02420
C1876       C  0.61515784  0.27294447  0.63295438    -0.02420
C1877       C  0.61811690  0.30563551  0.64340850     0.07510
C1878       C  0.60331470  0.31118329  0.67134679    -0.02610
Br1879     Br  0.60553413  0.34954719  0.69309487    -0.01160
Br1880     Br  0.56573415  0.29611135  0.72266461    -0.01230
Br1881     Br  0.61316219  0.25869302  0.59220354    -0.01190
Br1882     Br  0.60897881  0.20441036  0.64143706    -0.01180
C1883       C  0.68945344  0.09902491  0.77959034    -0.02300
C1884       C  0.67043003  0.08212070  0.75863217     0.07380
C1885       C  0.64174854  0.07030724  0.76911271    -0.02420
C1886       C  0.63298129  0.07599341  0.79837440    -0.02420
C1887       C  0.64593661  0.10117823  0.81504201     0.07510
C1888       C  0.67782128  0.10689693  0.80788089    -0.02610
Br1889     Br  0.70968312  0.11185183  0.83889657    -0.01160
Br1890     Br  0.73260667  0.11029477  0.77200345    -0.01230
Br1891     Br  0.61414119  0.04068639  0.81770827    -0.01190
Br1892     Br  0.61139670  0.04789702  0.74450578    -0.01180
C1893       C  0.75017983  0.12567158  0.66830271    -0.02300
C1894       C  0.74266630  0.09423482  0.67327765     0.07380
C1895       C  0.76511473  0.06991596  0.66698056    -0.02420
C1896       C  0.79278629  0.07620617  0.65191565    -0.02420
C1897       C  0.80174600  0.10866629  0.64731497     0.07510
C1898       C  0.78012038  0.13296799  0.65814113    -0.02610
Br1899     Br  0.79035146  0.17719907  0.66147874    -0.01160
Br1900     Br  0.71825461  0.15894358  0.67292367    -0.01230
Br1901     Br  0.81076807  0.03810210  0.63337518    -0.01190
Br1902     Br  0.75687233  0.02639335  0.67670548    -0.01180
C1903       C  0.65951612  0.97289108  0.62975293    -0.02300
C1904       C  0.65211745  0.94742789  0.64986944     0.07380
C1905       C  0.66227973  0.95252939  0.68032638    -0.02420
C1906       C  0.67923152  0.97945685  0.68736687    -0.02420
C1907       C  0.67385909  0.00723168  0.67060412     0.07510
C1908       C  0.66391024  0.00362333  0.64072695    -0.02610
Br1909     Br  0.65309776  0.03936825  0.61467248    -0.01160
Br1910     Br  0.66286213  0.96815034  0.58736505    -0.01230
Br1911     Br  0.71456702  0.97547606  0.71518522    -0.01190
Br1912     Br  0.64856392  0.93306272  0.71633140    -0.01180
C1913       C  0.06839924  0.11232041  0.39497437    -0.02300
C1914       C  0.06937031  0.07938742  0.39788749     0.07380
C1915       C  0.08141522  0.06101519  0.37497908    -0.02420
C1916       C  0.09343511  0.07491597  0.34919170    -0.02420
C1917       C  0.09325211  0.10931580  0.34537569     0.07510
C1918       C  0.07929534  0.12720630  0.36929572    -0.02610
Br1919     Br  0.07264208  0.17294337  0.36838227    -0.01160
Br1920     Br  0.05091930  0.13721345  0.42651870    -0.01230
Br1921     Br  0.11415024  0.04310176  0.32465930    -0.01190
Br1922     Br  0.08455145  0.01555328  0.38108070    -0.01180
C1923       C  0.87083921  0.06120900  0.57114432    -0.02300
C1924       C  0.89954107  0.05539328  0.58715233     0.07380
C1925       C  0.89998652  0.06006504  0.61763865    -0.02420
C1926       C  0.87278471  0.07316459  0.63057855    -0.02420
C1927       C  0.84857806  0.09077675  0.61248717     0.07510
C1928       C  0.84887359  0.08371739  0.58121914    -0.02610
Br1929     Br  0.82910417  0.10750039  0.54797019    -0.01160
Br1930     Br  0.86191228  0.03883046  0.53481716    -0.01230
Br1931     Br  0.87062915  0.06422112  0.67262119    -0.01190
Br1932     Br  0.93756303  0.04933268  0.64177814    -0.01180
C1933       C  0.05173378  0.88418565  0.59055872    -0.02300
C1934       C  0.06552498  0.91401830  0.59152829     0.07380
C1935       C  0.09838334  0.91523338  0.59510181    -0.02420
C1936       C  0.11704022  0.88748892  0.59192675    -0.02420
C1937       C  0.10469496  0.85686212  0.59745849     0.07510
C1938       C  0.07055175  0.85589420  0.59384002    -0.02610
Br1939     Br  0.04701825  0.81789486  0.58813761    -0.01160
Br1940     Br  0.00652994  0.88266644  0.58172335    -0.01230
Br1941     Br  0.14844636  0.89275145  0.56259920    -0.01190
Br1942     Br  0.11801866  0.95594685  0.59603741    -0.01180
C1943       C  0.92013129  0.09739358  0.38757373    -0.02300
C1944       C  0.94128636  0.10767334  0.40964313     0.07380
C1945       C  0.93979560  0.14010423  0.41796079    -0.02420
C1946       C  0.91819760  0.16197312  0.40322445    -0.02420
C1947       C  0.89617147  0.15099476  0.38096377     0.07510
C1948       C  0.89444620  0.11705643  0.37886743    -0.02610
Br1949     Br  0.85518125  0.09442035  0.37982288    -0.01160
Br1950     Br  0.92136723  0.05441170  0.37297469    -0.01230
Br1951     Br  0.92164603  0.20656430  0.41278915    -0.01190
Br1952     Br  0.96943157  0.15540172  0.44772857    -0.01180
C1953       C  0.80393320  0.41913621  0.62246027    -0.02300
C1954       C  0.81941940  0.43705646  0.64460799     0.07380
C1955       C  0.84940219  0.44780898  0.63872057    -0.02420
C1956       C  0.86512008  0.43824751  0.61294164    -0.02420
C1957       C  0.85200246  0.41529635  0.59227244     0.07510
C1958       C  0.81881964  0.41029076  0.59581514    -0.02610
Br1959     Br  0.78972546  0.39912264  0.56372656    -0.01160
Br1960     Br  0.76321756  0.40295250  0.63040488    -0.01230
Br1961     Br  0.90575546  0.45685901  0.60988914    -0.01190
Br1962     Br  0.86961449  0.47512264  0.66747417    -0.01180
C1963       C  0.68411679  0.40884958  0.63372008    -0.02300
C1964       C  0.69366626  0.40654780  0.66364529     0.07380
C1965       C  0.69301910  0.37621771  0.67751467    -0.02420
C1966       C  0.67453275  0.35163770  0.66537483    -0.02420
C1967       C  0.65843443  0.35632489  0.63728988     0.07510
C1968       C  0.66907429  0.38302969  0.61997899    -0.02610
Br1969     Br  0.66125627  0.38804836  0.57786930    -0.01160
Br1970     Br  0.68782920  0.44859109  0.61233170    -0.01230
Br1971     Br  0.67768362  0.31050325  0.68512639    -0.01190
Br1972     Br  0.72203945  0.36671005  0.71044453    -0.01180
C1973       C  0.84759759  0.55904833  0.63215314    -0.02300
C1974       C  0.84848093  0.55498967  0.66296535     0.07380
C1975       C  0.87670177  0.56327443  0.67850680    -0.02420
C1976       C  0.89833935  0.58441577  0.66638376    -0.02420
C1977       C  0.89450919  0.59463137  0.63594239     0.07510
C1978       C  0.87063798  0.57775745  0.61851217    -0.02610
Br1979     Br  0.86423076  0.58271353  0.57610314    -0.01160
Br1980     Br  0.81331875  0.54121809  0.60883336    -0.01230
Br1981     Br  0.93359232  0.59494910  0.69296641    -0.01190
Br1982     Br  0.88811148  0.54161287  0.71534963    -0.01180
C1983       C  0.68041311  0.60876625  0.90475490    -0.02300
C1984       C  0.64697940  0.61679986  0.90468166     0.07380
C1985       C  0.62877870  0.60571920  0.87905062    -0.02420
C1986       C  0.64340571  0.59327899  0.85383568    -0.02420
C1987       C  0.67563734  0.58444050  0.85507274     0.07510
C1988       C  0.69299212  0.58935528  0.88222699    -0.02610
Br1989     Br  0.73507072  0.57042781  0.88954109    -0.01160
Br1990     Br  0.71275080  0.62848516  0.92950423    -0.01230
Br1991     Br  0.61796847  0.58574759  0.81818899    -0.01190
Br1992     Br  0.58295859  0.60492263  0.87746050    -0.01180
C1993       C  0.63360485  0.75364387  0.10684870    -0.02300
C1994       C  0.66177744  0.76259721  0.09455103     0.07380
C1995       C  0.67067627  0.79425940  0.09765762    -0.02420
C1996       C  0.65203076  0.81667166  0.11355197    -0.02420
C1997       C  0.62160416  0.80877252  0.12489412     0.07510
C1998       C  0.61233908  0.77658845  0.11817076    -0.02610
Br1999     Br  0.56933190  0.76355532  0.11214775    -0.01160
Br2000     Br  0.62349618  0.70907059  0.10718197    -0.01230
Br2001     Br  0.67014236  0.85777243  0.11685863    -0.01190
Br2002     Br  0.70862263  0.80691799  0.07875265    -0.01180
C2003       C  0.74522356  0.66102848  0.10981225    -0.02300
C2004       C  0.75378953  0.68470700  0.09016807     0.07380
C2005       C  0.78490711  0.68419583  0.08033538    -0.02420
C2006       C  0.80834075  0.66250332  0.09295590    -0.02420
C2007       C  0.80084496  0.64078631  0.11644999     0.07510
C2008       C  0.76700479  0.63662424  0.11821996    -0.02610
Br2009     Br  0.74661645  0.59586752  0.12091519    -0.01160
Br2010     Br  0.70193971  0.65924050  0.12228414    -0.01230
Br2011     Br  0.84860232  0.66295079  0.07468167    -0.01190
Br2012     Br  0.79512376  0.71413445  0.04974305    -0.01180
C2013       C  0.65683841  0.69147779  0.95438513    -0.02300
C2014       C  0.65226814  0.65724731  0.95203722     0.07380
C2015       C  0.66348775  0.63931620  0.97824363    -0.02420
C2016       C  0.67139447  0.65421687  0.00543641    -0.02420
C2017       C  0.67421758  0.68723186  0.00713409     0.07510
C2018       C  0.66832011  0.70535183  0.98128613    -0.02610
Br2019     Br  0.67544922  0.75051457  0.98381424    -0.01160
Br2020     Br  0.64726767  0.72373082  0.92434213    -0.01230
Br2021     Br  0.67549008  0.62921224  0.04174042    -0.01190
Br2022     Br  0.66895460  0.59350439  0.97921240    -0.01180
C2023       C  0.45708696  0.58207089  0.10662633    -0.02300
C2024       C  0.42937925  0.59490291  0.09043133     0.07380
C2025       C  0.43138946  0.59465903  0.05818461    -0.02420
C2026       C  0.45541740  0.57685316  0.04484924    -0.02420
C2027       C  0.48309256  0.56859497  0.06104795     0.07510
C2028       C  0.48438826  0.57284959  0.09183772    -0.02610
Br2029     Br  0.52443017  0.56828438  0.11402628    -0.01160
Br2030     Br  0.46040783  0.57651500  0.14938327    -0.01230
Br2031     Br  0.45122469  0.56513429  0.00363548    -0.01190
Br2032     Br  0.41101422  0.62427914  0.02928121    -0.01180
C2033       C  0.60207761  0.58502131  0.94642558    -0.02300
C2034       C  0.60629249  0.61931360  0.94804283     0.07380
C2035       C  0.59263075  0.63329783  0.97421341    -0.02420
C2036       C  0.57961179  0.61438525  0.99698518    -0.02420
C2037       C  0.57357307  0.58196122  0.99279409     0.07510
C2038       C  0.58201481  0.56902889  0.96573187    -0.02610
Br2039     Br  0.56465670  0.52918584  0.95405692    -0.01160
Br2040     Br  0.62793649  0.55393934  0.92597602    -0.01230
Br2041     Br  0.57115094  0.63297078  0.03495381    -0.01190
Br2042     Br  0.59059703  0.67878958  0.98089348    -0.01180
C2043       C  0.55596300  0.46156397  0.07672948    -0.02300
C2044       C  0.56891781  0.49197326  0.07209223     0.07380
C2045       C  0.59016512  0.50262167  0.09419523    -0.02420
C2046       C  0.59889789  0.48298383  0.11878062    -0.02420
C2047       C  0.59596276  0.44911179  0.11750594     0.07510
C2048       C  0.56959284  0.44005677  0.09883271    -0.02610
Br2049     Br  0.54707936  0.40200064  0.10603324    -0.01160
Br2050     Br  0.52016652  0.44876356  0.05233257    -0.01230
Br2051     Br  0.59819127  0.50537328  0.15596336    -0.01190
Br2052     Br  0.60400626  0.54589836  0.09347830    -0.01180
C2053       C  0.43617500  0.66287597  0.17838023    -0.02300
C2054       C  0.46536452  0.67351515  0.16910637     0.07380
C2055       C  0.47375921  0.66560693  0.14016593    -0.02420
C2056       C  0.45150507  0.65228256  0.11991076    -0.02420
C2057       C  0.42313244  0.63716406  0.12986483     0.07510
C2058       C  0.41942075  0.64007127  0.16169997    -0.02610
Br2059     Br  0.40107291  0.60920095  0.18790808    -0.01160
Br2060     Br  0.41850460  0.67910069  0.21421939    -0.01230
Br2061     Br  0.46283458  0.65694063  0.07890323    -0.01190
Br2062     Br  0.51724542  0.66940478  0.12866254    -0.01180
C2063       C  0.57794089  0.67966301  0.30299178    -0.02300
C2064       C  0.58334039  0.64594208  0.30546604     0.07380
C2065       C  0.56516756  0.62731898  0.28463875    -0.02420
C2066       C  0.54277665  0.64121216  0.26389622    -0.02420
C2067       C  0.53714193  0.67443139  0.26288737     0.07510
C2068       C  0.55246894  0.69262271  0.28508732    -0.02610
Br2069     Br  0.53795080  0.73583778  0.29216956    -0.01160
Br2070     Br  0.60903254  0.71035002  0.31546180    -0.01230
Br2071     Br  0.52009100  0.61299514  0.23733588    -0.01190
Br2072     Br  0.57079028  0.58192318  0.28169991    -0.01180
C2073       C  0.52677113  0.78555713  0.17315272    -0.02300
C2074       C  0.54455470  0.75990565  0.18605882     0.07380
C2075       C  0.57762003  0.76331650  0.18911794    -0.02420
C2076       C  0.58982180  0.79335896  0.18494926    -0.02420
C2077       C  0.57613168  0.81298416  0.16198379     0.07510
C2078       C  0.54224569  0.80845146  0.15644322    -0.02610
Br2079     Br  0.51554873  0.82313575  0.12251438    -0.01160
Br2080     Br  0.48162735  0.78966942  0.17775766    -0.01230
Br2081     Br  0.59603197  0.81235655  0.22314502    -0.01190
Br2082     Br  0.60733888  0.72933381  0.19963334    -0.01180
C2083       C  0.67204820  0.46465402  0.19881304    -0.02300
C2084       C  0.67491292  0.49453076  0.18632453     0.07380
C2085       C  0.67154750  0.49697788  0.15546629    -0.02420
C2086       C  0.66288334  0.47015039  0.13935369    -0.02420
C2087       C  0.64556482  0.44531951  0.15329491     0.07510
C2088       C  0.65191494  0.44297837  0.18512817    -0.02610
Br2089     Br  0.64215036  0.41045427  0.21347166    -0.01160
Br2090     Br  0.70863536  0.44793133  0.22105613    -0.01230
Br2091     Br  0.68142374  0.46817860  0.10127810    -0.01190
Br2092     Br  0.67674076  0.53687838  0.13474842    -0.01180
C2093       C  0.76106988  0.60263258  0.19433458    -0.02300
C2094       C  0.76095417  0.56960242  0.19684045     0.07380
C2095       C  0.78326792  0.55150113  0.18089857    -0.02420
C2096       C  0.80334615  0.56616212  0.16059140    -0.02420
C2097       C  0.80559362  0.60025175  0.15926383     0.07510
C2098       C  0.78496246  0.61758745  0.17909951    -0.02610
Br2099     Br  0.78270633  0.66317404  0.18376591    -0.01160
Br2100     Br  0.72420380  0.62797884  0.20585704    -0.01230
Br2101     Br  0.82446876  0.53692451  0.13472323    -0.01190
Br2102     Br  0.78483622  0.50554023  0.18514218    -0.01180
C2103       C  0.65097312  0.59703049  0.25765437    -0.02300
C2104       C  0.67276777  0.57379090  0.26851757     0.07380
C2105       C  0.67893366  0.57179912  0.29927366    -0.02420
C2106       C  0.65971319  0.58908551  0.31927652    -0.02420
C2107       C  0.63501661  0.61145259  0.30833127     0.07510
C2108       C  0.63680583  0.61851543  0.27706043    -0.02610
Br2109     Br  0.63129274  0.66066826  0.25995920    -0.01160
Br2110     Br  0.64218651  0.60158479  0.21538134    -0.01230
Br2111     Br  0.67050598  0.58089932  0.36087049    -0.01190
Br2112     Br  0.71428742  0.54533352  0.31366784    -0.01180
C2113       C  0.28842203  0.35225019  0.01729750    -0.02300
C2114       C  0.30455018  0.33901514  0.99311113     0.07380
C2115       C  0.33758682  0.33543456  0.99673706    -0.02420
C2116       C  0.35171788  0.33722131  0.02504690    -0.02420
C2117       C  0.33996787  0.35908881  0.04600664     0.07510
C2118       C  0.30566572  0.36409756  0.04277115    -0.02610
Br2119     Br  0.27844897  0.37968347  0.07350818    -0.01160
Br2120     Br  0.24257625  0.35173369  0.01686196    -0.01230
Br2121     Br  0.36782782  0.29575380  0.03807865    -0.01190
Br2122     Br  0.36460474  0.32466872  0.96462160    -0.01180
C2123       C  0.11728854  0.38086833  0.80522005    -0.02300
C2124       C  0.12227792  0.37935671  0.83697756     0.07380
C2125       C  0.09585392  0.36844629  0.85360600    -0.02420
C2126       C  0.06858182  0.35703579  0.83911748    -0.02420
C2127       C  0.06483043  0.35921770  0.80839331     0.07510
C2128       C  0.08728435  0.37423741  0.79232728    -0.02610
Br2129     Br  0.07144922  0.39404867  0.75590963    -0.01160
Br2130     Br  0.14676959  0.39623443  0.77739155    -0.01230
Br2131     Br  0.03411528  0.34093036  0.86113867    -0.01190
Br2132     Br  0.09464044  0.36979963  0.89669660    -0.01180
C2133       C  0.16609829  0.34174868  0.88354696    -0.02300
C2134       C  0.16458956  0.37637402  0.88080538     0.07380
C2135       C  0.18504812  0.39087955  0.90153846    -0.02420
C2136       C  0.21514459  0.37703990  0.90689634    -0.02420
C2137       C  0.21772996  0.34386609  0.91088150     0.07510
C2138       C  0.19088555  0.32656842  0.90155713    -0.02610
Br2139     Br  0.18727821  0.28279469  0.91409905    -0.01160
Br2140     Br  0.13951835  0.31191446  0.86237465    -0.01230
Br2141     Br  0.25027792  0.40466354  0.91038740    -0.01190
Br2142     Br  0.16633884  0.39745009  0.93932567    -0.01180
C2143       C  0.31169862  0.25888440  0.88377032    -0.02300
C2144       C  0.30301631  0.25617507  0.91335899     0.07380
C2145       C  0.31294041  0.22835236  0.92914544    -0.02420
C2146       C  0.33494953  0.20632134  0.91718568    -0.02420
C2147       C  0.34007474  0.20599743  0.88562860     0.07510
C2148       C  0.32572486  0.23288361  0.86930661    -0.02610
Br2149     Br  0.32206716  0.23539723  0.82647859    -0.01160
Br2150     Br  0.30794781  0.29945150  0.86319495    -0.01230
Br2151     Br  0.36166398  0.18488560  0.94765704    -0.01190
Br2152     Br  0.29654111  0.21998297  0.96765102    -0.01180
C2153       C  0.60323760  0.44915982  0.86414782    -0.02300
C2154       C  0.59780577  0.41582759  0.85927875     0.07380
C2155       C  0.61851594  0.40225027  0.83823799    -0.02420
C2156       C  0.64890906  0.41413255  0.83446021    -0.02420
C2157       C  0.65603217  0.44563836  0.84144217     0.07510
C2158       C  0.63203279  0.46343322  0.85531128    -0.02610
Br2159     Br  0.63800322  0.50809340  0.86004973    -0.01160
Br2160     Br  0.56936571  0.47876197  0.87384832    -0.01230
Br2161     Br  0.68106591  0.38637534  0.81893299    -0.01190
Br2162     Br  0.60466022  0.37262932  0.80826288    -0.01180
C2163       C  0.55659526  0.33547422  0.85788028    -0.02300
C2164       C  0.55681092  0.36994452  0.85634332     0.07380
C2165       C  0.53514440  0.38431404  0.83426958    -0.02420
C2166       C  0.51153434  0.36656462  0.81935890    -0.02420
C2167       C  0.51236163  0.33303745  0.82067987     0.07510
C2168       C  0.53666480  0.31795433  0.83834950    -0.02610
Br2169     Br  0.54199108  0.27222122  0.83662828    -0.01160
Br2170     Br  0.57688502  0.30889322  0.88873220    -0.01230
Br2171     Br  0.47452019  0.38931835  0.80224383    -0.01190
Br2172     Br  0.53395660  0.42924279  0.82539435    -0.01180
C2173       C  0.39725752  0.23417772  0.86554504    -0.02300
C2174       C  0.38509222  0.20605387  0.85108258     0.07380
C2175       C  0.39253240  0.20358093  0.82033372    -0.02420
C2176       C  0.41715023  0.22145934  0.80902739    -0.02420
C2177       C  0.42628107  0.24996134  0.82245354     0.07510
C2178       C  0.41346743  0.25736195  0.84980238    -0.02610
Br2179     Br  0.41661616  0.29968384  0.86576680    -0.01160
Br2180     Br  0.39851125  0.24080296  0.90791021    -0.01230
Br2181     Br  0.43996262  0.20480069  0.77633905    -0.01190
Br2182     Br  0.36705215  0.18337142  0.78965956    -0.01180
C2183       C  0.44636559  0.33009028  0.71049008    -0.02300
C2184       C  0.43203932  0.32278983  0.73702067     0.07380
C2185       C  0.40008346  0.33141601  0.73972761    -0.02420
C2186       C  0.38178210  0.34156290  0.71473984    -0.02420
C2187       C  0.39635148  0.35418925  0.68872684     0.07510
C2188       C  0.43060205  0.35023359  0.68913598    -0.02610
Br2189     Br  0.46014604  0.37586540  0.66805736    -0.01160
Br2190     Br  0.48764286  0.31234570  0.70310083    -0.01230
Br2191     Br  0.33697493  0.33521584  0.71846544    -0.01190
Br2192     Br  0.38123815  0.33206778  0.77827935    -0.01180
C2193       C  0.33758863  0.50401804  0.83573148    -0.02300
C2194       C  0.31777078  0.51056132  0.81101393     0.07380
C2195       C  0.31786220  0.54105168  0.79822951    -0.02420
C2196       C  0.33129743  0.56660062  0.81402088    -0.02420
C2197       C  0.35032383  0.56057984  0.84096736     0.07510
C2198       C  0.35833287  0.52713329  0.84553099    -0.02610
Br2199     Br  0.40112166  0.50932690  0.85185102    -0.01160
Br2200     Br  0.34167608  0.46141971  0.85219538    -0.01230
Br2201     Br  0.32124243  0.60779439  0.79651278    -0.01190
Br2202     Br  0.30218313  0.54696825  0.75805275    -0.01180
C2203       C  0.20900499  0.44827448  0.80941778    -0.02300
C2204       C  0.23548275  0.42792211  0.80931321     0.07380
C2205       C  0.23225242  0.39683171  0.81932180    -0.02420
C2206       C  0.20251208  0.38679971  0.82854252    -0.02420
C2207       C  0.17754848  0.40931347  0.83577529     0.07510
C2208       C  0.18196134  0.44127159  0.82507961    -0.02610
Br2209     Br  0.15311698  0.47772347  0.82698100    -0.01160
Br2210     Br  0.20816090  0.48324664  0.78262437    -0.01230
Br2211     Br  0.19556402  0.34253749  0.82229144    -0.01190
Br2212     Br  0.26820718  0.36764051  0.81934923    -0.01180
C2213       C  0.37128611  0.41238377  0.71176030    -0.02300
C2214       C  0.35504024  0.39774015  0.68682144     0.07380
C2215       C  0.32070490  0.40010886  0.68710452    -0.02420
C2216       C  0.30594807  0.41960814  0.70775889    -0.02420
C2217       C  0.32184639  0.42808305  0.73400302     0.07510
C2218       C  0.35472694  0.42306087  0.73634115    -0.02610
Br2219     Br  0.37739821  0.42880029  0.77394405    -0.01160
Br2220     Br  0.41634532  0.41925167  0.71425580    -0.01230
Br2221     Br  0.26394092  0.43554989  0.69896034    -0.01190
Br2222     Br  0.28975403  0.37277075  0.66770921    -0.01180
C2223       C  0.53734845  0.44252752  0.94253902    -0.02300
C2224       C  0.50513990  0.44300444  0.93393034     0.07380
C2225       C  0.49567351  0.42702987  0.90836517    -0.02420
C2226       C  0.51704597  0.40609551  0.89538391    -0.02420
C2227       C  0.55082077  0.41085910  0.89835721     0.07510
C2228       C  0.56031972  0.43001490  0.92340002    -0.02610
Br2229     Br  0.60402383  0.43917764  0.93404458    -0.01160
Br2230     Br  0.54955571  0.45673944  0.98149459    -0.01230
Br2231     Br  0.49713872  0.36547332  0.88961898    -0.01190
Br2232     Br  0.45190649  0.42896440  0.89389544    -0.01180
C2233       C  0.43665622  0.55115079  0.91544691    -0.02300
C2234       C  0.42141338  0.52634472  0.93041641     0.07380
C2235       C  0.38941008  0.52231603  0.92323677    -0.02420
C2236       C  0.37192156  0.54534873  0.90620551    -0.02420
C2237       C  0.38710492  0.56785939  0.88680687     0.07510
C2238       C  0.42093518  0.56881978  0.89162661    -0.02610
Br2239     Br  0.44827811  0.59118751  0.86587671    -0.01160
Br2240     Br  0.47945814  0.56147061  0.92752562    -0.01230
Br2241     Br  0.32700484  0.53962710  0.90903031    -0.01190
Br2242     Br  0.37036386  0.48147217  0.93067230    -0.01180
C2243       C  0.41226169  0.40576024  0.00116930    -0.02300
C2244       C  0.41995342  0.43712839  0.00805182     0.07380
C2245       C  0.41418431  0.44724993  0.03696868    -0.02420
C2246       C  0.39947753  0.42714998  0.05797368    -0.02420
C2247       C  0.38959297  0.39527306  0.05057862     0.07510
C2248       C  0.40228990  0.38443859  0.02316001    -0.02610
Br2249     Br  0.42319420  0.34336123  0.01988123    -0.01160
Br2250     Br  0.41644687  0.39077838  0.96120763    -0.01230
Br2251     Br  0.40117377  0.44292004  0.09794796    -0.01190
Br2252     Br  0.42852385  0.48871983  0.04796718    -0.01180
C2253       C  0.82855384  0.16209430  0.08566268    -0.02300
C2254       C  0.83265233  0.15887300  0.05541368     0.07380
C2255       C  0.86260227  0.15036243  0.04529357    -0.02420
C2256       C  0.88840351  0.14360504  0.06563203    -0.02420
C2257       C  0.88400395  0.14526597  0.09712361     0.07510
C2258       C  0.85464570  0.16000680  0.10551943    -0.02610
Br2259     Br  0.84786185  0.17879640  0.14333984    -0.01160
Br2260     Br  0.78646526  0.17180391  0.09936180    -0.01230
Br2261     Br  0.92920318  0.14226677  0.04813722    -0.01190
Br2262     Br  0.86763522  0.14951124  0.00295911    -0.01180
C2263       C  0.68844723  0.18001542  0.87032457    -0.02300
C2264       C  0.68622332  0.17120408  0.90051194     0.07380
C2265       C  0.66124585  0.15262044  0.90846839    -0.02420
C2266       C  0.63718208  0.14667835  0.88746548    -0.02420
C2267       C  0.64294868  0.14681177  0.85621014     0.07510
C2268       C  0.66749344  0.16767510  0.84806834    -0.02610
Br2269     Br  0.67336509  0.18077558  0.80739557    -0.01160
Br2270     Br  0.72138335  0.20813616  0.85962335    -0.01230
Br2271     Br  0.59560715  0.15407658  0.90299186    -0.01190
Br2272     Br  0.65591416  0.14105339  0.94950683    -0.01180
C2273       C  0.67986328  0.35985692  0.10428792    -0.02300
C2274       C  0.67493272  0.36179262  0.07368882     0.07380
C2275       C  0.65932490  0.38860602  0.06088310    -0.02420
C2276       C  0.64271905  0.41029000  0.07864982    -0.02420
C2277       C  0.64458501  0.40716525  0.11064847     0.07510
C2278       C  0.66830124  0.38428279  0.12209607    -0.02610
Br2279     Br  0.68643433  0.38312125  0.16171101    -0.01160
Br2280     Br  0.70294586  0.32336981  0.12199970    -0.01230
Br2281     Br  0.62440684  0.44566682  0.05601532    -0.01190
Br2282     Br  0.66178198  0.39615519  0.01857224    -0.01180
C2283       C  0.59328194  0.36540716  0.93129143    -0.02300
C2284       C  0.59980214  0.37363429  0.90102259     0.07380
C2285       C  0.63208998  0.36975178  0.89393769    -0.02420
C2286       C  0.65588059  0.37359298  0.91562419    -0.02420
C2287       C  0.65008775  0.36392831  0.94447149     0.07510
C2288       C  0.61856016  0.35920711  0.95216410    -0.02610
Br2289     Br  0.61065652  0.34070363  0.99050797    -0.01160
Br2290     Br  0.55155434  0.35707764  0.94502264    -0.01230
Br2291     Br  0.69860796  0.37932723  0.90359444    -0.01190
Br2292     Br  0.64347023  0.33766451  0.86592073    -0.01180
C2293       C  0.81292313  0.37410554  0.13259018    -0.02300
C2294       C  0.84715466  0.36995681  0.13763002     0.07380
C2295       C  0.86362916  0.35628332  0.11280851    -0.02420
C2296       C  0.84803691  0.35039335  0.08541794    -0.02420
C2297       C  0.81536316  0.35440547  0.08158695     0.07510
C2298       C  0.79825425  0.36747665  0.10449536    -0.02610
Br2299     Br  0.75488939  0.38037905  0.09487036    -0.01160
Br2300     Br  0.78290215  0.39252040  0.15972310    -0.01230
Br2301     Br  0.87162055  0.33845561  0.05100893    -0.01190
Br2302     Br  0.90835040  0.34447633  0.11349825    -0.01180
C2303       C  0.85329736  0.09585365  0.12563431    -0.02300
C2304       C  0.88378629  0.10450951  0.13826474     0.07380
C2305       C  0.89224194  0.08767844  0.16483933    -0.02420
C2306       C  0.86854966  0.07533146  0.18271797    -0.02420
C2307       C  0.83605610  0.07616698  0.17290700     0.07510
C2308       C  0.82894314  0.08613936  0.14364112    -0.02610
Br2309     Br  0.78659135  0.08365569  0.12617433    -0.01160
Br2310     Br  0.84608569  0.08598432  0.08394748    -0.01230
Br2311     Br  0.88187602  0.05991918  0.22175819    -0.01190
Br2312     Br  0.93556931  0.07930386  0.17726945    -0.01180
C2313       C  0.65077277  0.11792928  0.37120453    -0.02300
C2314       C  0.63784271  0.10253812  0.39678217     0.07380
C2315       C  0.63523431  0.06805823  0.39392136    -0.02420
C2316       C  0.64328598  0.05243029  0.36728825    -0.02420
C2317       C  0.64934030  0.06969899  0.34164224     0.07510
C2318       C  0.65174732  0.10258621  0.34369958    -0.02610
Br2319     Br  0.65627630  0.12684334  0.30761017    -0.01160
Br2320     Br  0.66594617  0.16106940  0.37066350    -0.01230
Br2321     Br  0.64577682  0.00642418  0.36489245    -0.01190
Br2322     Br  0.61692657  0.03868892  0.42136041    -0.01180
C2323       C  0.65294805  0.87037619  0.20734763    -0.02300
C2324       C  0.64077391  0.90221051  0.20729542     0.07380
C2325       C  0.61846110  0.91111498  0.18528401    -0.02420
C2326       C  0.61506657  0.89179934  0.16055617    -0.02420
C2327       C  0.61932596  0.85764617  0.16299505     0.07510
C2328       C  0.64231425  0.84810578  0.18569255    -0.02610
Br2329     Br  0.66386277  0.80693194  0.18532201    -0.01160
Br2330     Br  0.68457501  0.85774163  0.23738635    -0.01230
Br2331     Br  0.61926767  0.91601523  0.12434319    -0.01190
Br2332     Br  0.59890952  0.95321917  0.18452455    -0.01180
C2333       C  0.80842285  0.12174397  0.32257872    -0.02300
C2334       C  0.82697984  0.09806668  0.30810677     0.07380
C2335       C  0.85929281  0.10301074  0.30675626    -0.02420
C2336       C  0.87234467  0.13137893  0.31739627    -0.02420
C2337       C  0.85572236  0.15193117  0.33777021     0.07510
C2338       C  0.82248984  0.14643799  0.33924804    -0.02610
Br2339     Br  0.79469647  0.16659321  0.36713310    -0.01160
Br2340     Br  0.76294045  0.12048462  0.32203710    -0.01230
Br2341     Br  0.91254485  0.13969030  0.30087175    -0.01190
Br2342     Br  0.88724705  0.06821861  0.29633559    -0.01180
C2343       C  0.61942569  0.88886448  0.35974411    -0.02300
C2344       C  0.58597339  0.89342469  0.35160779     0.07380
C2345       C  0.57939078  0.92025259  0.33253210    -0.02420
C2346       C  0.60343181  0.93342987  0.31562412    -0.02420
C2347       C  0.63578634  0.92374979  0.32035380     0.07510
C2348       C  0.64311718  0.90006123  0.34174565    -0.02610
Br2349     Br  0.68591488  0.88292558  0.34858451    -0.01160
Br2350     Br  0.63629617  0.88010640  0.39991954    -0.01230
Br2351     Br  0.58995693  0.96102076  0.28238863    -0.01190
Br2352     Br  0.53835686  0.94112097  0.32846852    -0.01180
C2353       C  0.11408731  0.94295583  0.41788114    -0.02300
C2354       C  0.08288494  0.94224998  0.40642076     0.07380
C2355       C  0.07775788  0.93102380  0.37774703    -0.02420
C2356       C  0.10372226  0.91938357  0.36182871    -0.02420
C2357       C  0.13349848  0.91018522  0.37686077     0.07510
C2358       C  0.13807932  0.92388707  0.40588251    -0.02610
Br2359     Br  0.17441048  0.91884025  0.43290605    -0.01160
Br2360     Br  0.12462953  0.97357464  0.44820658    -0.01230
Br2361     Br  0.09894357  0.92579419  0.31955750    -0.01190
Br2362     Br  0.03572321  0.93324560  0.35963041    -0.01180
C2363       C  0.33040698  0.81791248  0.54787621    -0.02300
C2364       C  0.33319511  0.85205204  0.54867768     0.07380
C2365       C  0.31366745  0.86980520  0.52695825    -0.02420
C2366       C  0.29547337  0.85436931  0.50489384    -0.02420
C2367       C  0.29256908  0.82108934  0.50573021     0.07510
C2368       C  0.30706155  0.80399294  0.52955734    -0.02610
Br2369     Br  0.29564184  0.76037182  0.53618667    -0.01160
Br2370     Br  0.36174536  0.78676892  0.56313276    -0.01230
Br2371     Br  0.27695274  0.87978654  0.47238604    -0.01190
Br2372     Br  0.31230634  0.91596968  0.52491664    -0.01180
C2373       C  0.16700382  0.84368050  0.40691945    -0.02300
C2374       C  0.17896848  0.86744068  0.38802056     0.07380
C2375       C  0.21255740  0.87265033  0.39269440    -0.02420
C2376       C  0.23282562  0.84852377  0.40444875    -0.02420
C2377       C  0.22047363  0.82206616  0.41823329     0.07510
C2378       C  0.18753176  0.81959604  0.41944014    -0.02610
Br2379     Br  0.17049505  0.78133209  0.43498008    -0.01160
Br2380     Br  0.12587742  0.84847997  0.42388104    -0.01230
Br2381     Br  0.27813435  0.85113768  0.40018539    -0.01190
Br2382     Br  0.23246117  0.91363131  0.38854467    -0.01180
C2383       C  0.38675293  0.90226125  0.49171451    -0.02300
C2384       C  0.40882325  0.92536150  0.49873774     0.07380
C2385       C  0.42217912  0.92409321  0.52813669    -0.02420
C2386       C  0.40817948  0.90596913  0.55124225    -0.02420
C2387       C  0.38238674  0.88542669  0.54454968     0.07510
C2388       C  0.37894758  0.87942374  0.51314440    -0.02610
Br2389     Br  0.37653219  0.83692756  0.49760347    -0.01160
Br2390     Br  0.37035366  0.89855854  0.45148544    -0.01230
Br2391     Br  0.42661019  0.90868509  0.59097683    -0.01190
Br2392     Br  0.46148676  0.94466737  0.53581362    -0.01180
C2393       C  0.47951517  0.90620488  0.39882082    -0.02300
C2394       C  0.48958443  0.92765014  0.42032024     0.07380
C2395       C  0.52146651  0.93591282  0.42120134    -0.02420
C2396       C  0.54381155  0.92040134  0.40276791    -0.02420
C2397       C  0.53449518  0.89543035  0.38252913     0.07510
C2398       C  0.50038671  0.89509256  0.37744276    -0.02610
Br2399     Br  0.47910367  0.89513251  0.33840273    -0.01160
Br2400     Br  0.43544063  0.89513283  0.39589406    -0.01230
Br2401     Br  0.58508854  0.93812589  0.40511709    -0.01190
Br2402     Br  0.53410365  0.96846100  0.44874042    -0.01180
C2403       C  0.39467075  0.04354443  0.43132511    -0.02300
C2404       C  0.40811830  0.01631149  0.41763157     0.07380
C2405       C  0.41150034  0.01941584  0.38657254    -0.02420
C2406       C  0.40554338  0.04884826  0.37190169    -0.02420
C2407       C  0.38236539  0.07075249  0.38170292     0.07510
C2408       C  0.38146208  0.07025475  0.41397973    -0.02610
Br2409     Br  0.36916755  0.10685482  0.43713910    -0.01160
Br2410     Br  0.39663985  0.04549530  0.47409793    -0.01230
Br2411     Br  0.44351661  0.06636275  0.35709934    -0.01190
Br2412     Br  0.42467861  0.98468078  0.36209712    -0.01180
C2413       C  0.31023545  0.69330992  0.39548477    -0.02300
C2414       C  0.34409457  0.69492799  0.39082175     0.07380
C2415       C  0.35899921  0.72230976  0.40386706    -0.02420
C2416       C  0.34125258  0.74611566  0.41839878    -0.02420
C2417       C  0.30954324  0.74154410  0.42490886     0.07510
C2418       C  0.29531527  0.71368083  0.41559752    -0.02610
Br2419     Br  0.25333909  0.70505534  0.42877145    -0.01160
Br2420     Br  0.27871611  0.67336788  0.36971763    -0.01230
Br2421     Br  0.35983741  0.78658240  0.42700156    -0.01190
Br2422     Br  0.40390999  0.72962949  0.40251807    -0.01180
C2423       C  0.51513051  0.83372674  0.29275729    -0.02300
C2424       C  0.48977519  0.81910169  0.30599025     0.07380
C2425       C  0.48872572  0.81934168  0.33695163    -0.02420
C2426       C  0.51411548  0.83085332  0.35436426    -0.02420
C2427       C  0.53717103  0.85165660  0.34207263     0.07510
C2428       C  0.53676570  0.85228555  0.30973550    -0.02610
Br2429     Br  0.56504320  0.87497550  0.28509832    -0.01160
Br2430     Br  0.52052688  0.82686450  0.25084810    -0.01230
Br2431     Br  0.51215504  0.81866526  0.39549830    -0.01190
Br2432     Br  0.44941839  0.81009102  0.35609357    -0.01180
C2433       C  0.37741443  0.74909352  0.31822071    -0.02300
C2434       C  0.40581391  0.74098839  0.30465815     0.07380
C2435       C  0.42111774  0.71213827  0.31249789    -0.02420
C2436       C  0.41134811  0.69486390  0.33704334    -0.02420
C2437       C  0.37878621  0.69731765  0.34585782     0.07510
C2438       C  0.36221354  0.72644025  0.33553585    -0.02610
Br2439     Br  0.31777962  0.73713769  0.34069913    -0.01160
Br2440     Br  0.36011715  0.79223640  0.31505510    -0.01230
Br2441     Br  0.44785159  0.67986259  0.36139259    -0.01190
Br2442     Br  0.45760077  0.69743867  0.29151427    -0.01180
C2443       C  0.38331096  0.87934559  0.20752852    -0.02300
C2444       C  0.36875072  0.86583368  0.18108489     0.07380
C2445       C  0.37017496  0.83121881  0.18074821    -0.02420
C2446       C  0.39020614  0.81377370  0.20132352    -0.02420
C2447       C  0.40141760  0.82785973  0.22756690     0.07510
C2448       C  0.39477664  0.86019025  0.23150988    -0.02610
Br2449     Br  0.39921244  0.87835382  0.27073344    -0.01160
Br2450     Br  0.39368886  0.92334354  0.21257415    -0.01230
Br2451     Br  0.40165988  0.76979974  0.19366528    -0.01190
Br2452     Br  0.34230278  0.80347673  0.15834077    -0.01180
C2453       C  0.30636738  0.89538063  0.19814638    -0.02300
C2454       C  0.32743836  0.91010238  0.17837364     0.07380
C2455       C  0.33133594  0.94395152  0.18367742    -0.02420
C2456       C  0.32191102  0.95714599  0.21099145    -0.02420
C2457       C  0.29833123  0.94228850  0.22726823     0.07510
C2458       C  0.28660013  0.91421831  0.21524427    -0.02610
Br2459     Br  0.24261938  0.90276172  0.21887488    -0.01160
Br2460     Br  0.29969189  0.85050717  0.20178840    -0.01230
Br2461     Br  0.34667039  0.99184886  0.22664435    -0.01190
Br2462     Br  0.35389368  0.97412078  0.16004505    -0.01180
C2463       C  0.20902666  0.94148749  0.31594658    -0.02300
C2464       C  0.23588238  0.92149309  0.31339042     0.07380
C2465       C  0.23415756  0.88916545  0.31955261    -0.02420
C2466       C  0.20616456  0.87759547  0.33043434    -0.02420
C2467       C  0.18219888  0.89945483  0.34150516     0.07510
C2468       C  0.18452523  0.93232375  0.33374781    -0.02610
Br2469     Br  0.16068393  0.96761883  0.34958305    -0.01160
Br2470     Br  0.20485344  0.98060785  0.29313902    -0.01230
Br2471     Br  0.20348405  0.83151095  0.33211145    -0.01190
Br2472     Br  0.27088260  0.86119436  0.31585408    -0.01180
C2473       C  0.29171735  0.03505058  0.32973639    -0.02300
C2474       C  0.30865124  0.01000386  0.31740057     0.07380
C2475       C  0.34146031  0.01133704  0.31560367    -0.02420
C2476       C  0.35724272  0.03881795  0.32392983    -0.02420
C2477       C  0.34087896  0.06432604  0.33857278     0.07510
C2478       C  0.30680620  0.06329096  0.33638248    -0.02610
Br2479     Br  0.27818161  0.09985335  0.33289970    -0.01160
Br2480     Br  0.24804818  0.03053629  0.33965449    -0.01230
Br2481     Br  0.39673423  0.04332985  0.30420546    -0.01190
Br2482     Br  0.36516092  0.97409722  0.30301870    -0.01180
C2483       C  0.39152896  0.07025121  0.11388058    -0.02300
C2484       C  0.38962020  0.05893384  0.08504342     0.07380
C2485       C  0.36073946  0.06328972  0.06887595    -0.02420
C2486       C  0.33898742  0.08746601  0.07632038    -0.02420
C2487       C  0.33898388  0.09914565  0.10619100     0.07510
C2488       C  0.36518291  0.08672156  0.12547227    -0.02610
Br2489     Br  0.36664914  0.08915404  0.16818858    -0.01160
Br2490     Br  0.43038506  0.06374818  0.13734122    -0.01230
Br2491     Br  0.31791091  0.10680079  0.04142473    -0.01190
Br2492     Br  0.35123379  0.03613580  0.03575304    -0.01180
C2493       C  0.56790136  0.10948546  0.85559751    -0.02300
C2494       C  0.60172691  0.10440270  0.85377659     0.07380
C2495       C  0.61645523  0.08291687  0.87574332    -0.02420
C2496       C  0.59927985  0.07102326  0.89930876    -0.02420
C2497       C  0.56637693  0.07518539  0.89899210     0.07510
C2498       C  0.55076013  0.09087002  0.87481230    -0.02610
Br2499     Br  0.50545065  0.08823446  0.86783703    -0.01160
Br2500     Br  0.54302095  0.14637494  0.84082185    -0.01230
Br2501     Br  0.62062572  0.04650563  0.93117353    -0.01190
Br2502     Br  0.66090538  0.07121027  0.87737772    -0.01180
C2503       C  0.54136147  0.90342911  0.11704719    -0.02300
C2504       C  0.55068243  0.90875296  0.08790252     0.07380
C2505       C  0.57238141  0.88659882  0.07569148    -0.02420
C2506       C  0.58120234  0.85830335  0.09054268    -0.02420
C2507       C  0.57751775  0.85577233  0.12166108     0.07510
C2508       C  0.55584878  0.87873222  0.13449004    -0.02610
Br2509     Br  0.54558054  0.87834156  0.17645824    -0.01160
Br2510     Br  0.51026020  0.93059970  0.13455012    -0.01230
Br2511     Br  0.59329036  0.82415949  0.06461242    -0.01190
Br2512     Br  0.59725936  0.89680761  0.04194476    -0.01180
C2513       C  0.35437070  0.92554484  0.11151695    -0.02300
C2514       C  0.36941031  0.90990985  0.13745661     0.07380
C2515       C  0.40301550  0.91378978  0.14057177    -0.02420
C2516       C  0.41699377  0.93611072  0.12270548    -0.02420
C2517       C  0.40458852  0.94217994  0.09385206     0.07510
C2518       C  0.37238985  0.93656545  0.08828297    -0.02610
Br2519     Br  0.35092185  0.94754751  0.05075489    -0.01160
Br2520     Br  0.30997115  0.93778137  0.10776784    -0.01230
Br2521     Br  0.44096983  0.96767876  0.14332637    -0.01190
Br2522     Br  0.43482551  0.88763584  0.16204200    -0.01180
C2523       C  0.38904102  0.10248846  0.90653605    -0.02300
C2524       C  0.42201833  0.10308218  0.90896498     0.07380
C2525       C  0.43637056  0.13235535  0.90651480    -0.02420
C2526       C  0.41974253  0.15855086  0.89308366    -0.02420
C2527       C  0.38518329  0.15895546  0.88999725     0.07510
C2528       C  0.37094252  0.13080555  0.90175610    -0.02610
Br2529     Br  0.32651683  0.12817409  0.91060483    -0.01160
Br2530     Br  0.36870298  0.06242439  0.91194134    -0.01230
Br2531     Br  0.44964585  0.18654052  0.87565197    -0.01190
Br2532     Br  0.47873525  0.13699949  0.92387699    -0.01180
C2533       C  0.06430795  0.85579304  0.14571058    -0.02300
C2534       C  0.06359937  0.86002325  0.17621140     0.07380
C2535       C  0.07284841  0.88898076  0.18843686    -0.02420
C2536       C  0.09042293  0.90986481  0.17172188    -0.02420
C2537       C  0.08977292  0.90744129  0.13963965     0.07510
C2538       C  0.07274679  0.88088356  0.12753962    -0.02610
Br2539     Br  0.05696226  0.87774093  0.08685617    -0.01160
Br2540     Br  0.05083516  0.81655762  0.12802231    -0.01230
Br2541     Br  0.11892939  0.93394366  0.19732864    -0.01190
Br2542     Br  0.06254198  0.90039203  0.22859058    -0.01180
C2543       C  0.86273793  0.63546295  0.32675439    -0.02300
C2544       C  0.87787684  0.60961747  0.34414248     0.07380
C2545       C  0.91210904  0.60724265  0.34312203    -0.02420
C2546       C  0.92823482  0.62877872  0.32570934    -0.02420
C2547       C  0.91310595  0.65755305  0.31622258     0.07510
C2548       C  0.88024671  0.66047190  0.31611665    -0.02610
Br2549     Br  0.85866492  0.69721967  0.29744383    -0.01160
Br2550     Br  0.81867545  0.63734814  0.31290297    -0.01230
Br2551     Br  0.97147942  0.61792600  0.31513709    -0.01190
Br2552     Br  0.94166376  0.58134462  0.36792700    -0.01180
C2553       C  0.87014967  0.61864614  0.18061698    -0.02300
C2554       C  0.84806667  0.63771859  0.16137090     0.07380
C2555       C  0.84885600  0.67132855  0.16597647    -0.02420
C2556       C  0.86747323  0.68283062  0.18941041    -0.02420
C2557       C  0.89456485  0.66570606  0.19992773     0.07510
C2558       C  0.89495135  0.63287135  0.19715797    -0.02610
Br2559     Br  0.92999893  0.60759742  0.21464226    -0.01160
Br2560     Br  0.87261746  0.57287594  0.18210243    -0.01230
Br2561     Br  0.85354220  0.72022997  0.20996963    -0.01190
Br2562     Br  0.82868942  0.70489725  0.14201229    -0.01180
C2563       C  0.08424172  0.84516606  0.34593190    -0.02300
C2564       C  0.07874669  0.84554983  0.31493067     0.07380
C2565       C  0.10522949  0.84931787  0.29733663    -0.02420
C2566       C  0.13301129  0.86216379  0.31018489    -0.02420
C2567       C  0.13717258  0.86229206  0.34250376     0.07510
C2568       C  0.11543300  0.84359732  0.35682470    -0.02610
Br2569     Br  0.12887671  0.79986398  0.36241910    -0.01160
Br2570     Br  0.05168714  0.84035938  0.37401001    -0.01230
Br2571     Br  0.15723589  0.88367107  0.28060208    -0.01190
Br2572     Br  0.10517628  0.83420959  0.25707839    -0.01180
C2573       C  0.03561302  0.65961457  0.37162319    -0.02300
C2574       C  0.04874791  0.67141813  0.34601959     0.07380
C2575       C  0.08147787  0.67355413  0.34517855    -0.02420
C2576       C  0.10079988  0.66587059  0.37036001    -0.02420
C2577       C  0.08920745  0.64680786  0.39404364     0.07510
C2578       C  0.05505680  0.64274295  0.39286481    -0.02610
Br2579     Br  0.03213499  0.60879806  0.41113394    -0.01160
Br2580     Br  0.99066218  0.66520361  0.37674279    -0.01230
Br2581     Br  0.14341630  0.68005048  0.36852340    -0.01190
Br2582     Br  0.09999165  0.68597530  0.30857329    -0.01180
C2583       C  0.84172164  0.67157403  0.40599324    -0.02300
C2584       C  0.80914438  0.67737782  0.40160070     0.07380
C2585       C  0.79259723  0.65729039  0.38311049    -0.02420
C2586       C  0.80466795  0.62637140  0.37713391    -0.02420
C2587       C  0.83826761  0.61843184  0.38195322     0.07510
C2588       C  0.85644122  0.64343441  0.39577701    -0.02610
Br2589     Br  0.90192579  0.64100091  0.40326727    -0.01160
Br2590     Br  0.86668763  0.70521628  0.42272957    -0.01230
Br2591     Br  0.77231173  0.60008387  0.35948646    -0.01190
Br2592     Br  0.76083748  0.67781495  0.35716885    -0.01180
C2593       C  0.62418262  0.80485674  0.38331081    -0.02300
C2594       C  0.62562623  0.80392162  0.41430019     0.07380
C2595       C  0.59907571  0.81633811  0.42885671    -0.02420
C2596       C  0.57828966  0.83936389  0.41501443    -0.02420
C2597       C  0.57820956  0.84429814  0.38336635     0.07510
C2598       C  0.59958616  0.82274846  0.36799715    -0.02610
Br2599     Br  0.60059416  0.81876872  0.32563923    -0.01160
Br2600     Br  0.65638041  0.78243663  0.36134379    -0.01230
Br2601     Br  0.55292434  0.86280092  0.44254876    -0.01190
Br2602     Br  0.58880383  0.79885183  0.46695867    -0.01180
C2603       C  0.69458233  0.86994134  0.59692021    -0.02300
C2604       C  0.67984503  0.84077733  0.59446273     0.07380
C2605       C  0.64917546  0.83780388  0.60402302    -0.02420
C2606       C  0.63236144  0.86448293  0.61426970    -0.02420
C2607       C  0.64800676  0.89394170  0.62058777     0.07510
C2608       C  0.68120989  0.89447370  0.61359855    -0.02610
Br2609     Br  0.71361880  0.92167274  0.63032086    -0.01160
Br2610     Br  0.73229585  0.87753040  0.57523413    -0.01230
Br2611     Br  0.58709333  0.85943721  0.61624575    -0.01190
Br2612     Br  0.62938330  0.79712973  0.60024031    -0.01180
C2613       C  0.60711314  0.66878750  0.37543076    -0.02300
C2614       C  0.62413099  0.65116654  0.35302947     0.07380
C2615       C  0.65775524  0.65217070  0.35712593    -0.02420
C2616       C  0.67177762  0.65728762  0.38530811    -0.02420
C2617       C  0.65561397  0.67393820  0.40655461     0.07510
C2618       C  0.62333122  0.68082515  0.40112344    -0.02610
Br2619     Br  0.60216051  0.70782363  0.42904219    -0.01160
Br2620     Br  0.56409144  0.68529539  0.37023671    -0.01230
Br2621     Br  0.71205116  0.63823915  0.39718075    -0.01190
Br2622     Br  0.68555493  0.65853672  0.32490766    -0.01180
C2623       C  0.87497202  0.70176938  0.58649776    -0.02300
C2624       C  0.84266650  0.69516124  0.58643224     0.07380
C2625       C  0.83296260  0.66801377  0.60059069    -0.02420
C2626       C  0.85493600  0.64847010  0.61648000    -0.02420
C2627       C  0.88876586  0.64964151  0.61099032     0.07510
C2628       C  0.89806257  0.67920835  0.59794094    -0.02610
Br2629     Br  0.94168526  0.68970892  0.59227520    -0.01160
Br2630     Br  0.88710738  0.74130886  0.56881634    -0.01230
Br2631     Br  0.83438435  0.63026897  0.65042520    -0.01190
Br2632     Br  0.78875965  0.65664934  0.59734898    -0.01180
C2633       C  0.14673407  0.07300731  0.89110603    -0.02300
C2634       C  0.13838619  0.10640864  0.89022707     0.07380
C2635       C  0.15031825  0.12413267  0.86540504    -0.02420
C2636       C  0.16360238  0.10889805  0.84105065    -0.02420
C2637       C  0.17209574  0.07660649  0.84270286     0.07510
C2638       C  0.16542607  0.05938130  0.86880386    -0.02610
Br2639     Br  0.17933882  0.01542714  0.87356969    -0.01160
Br2640     Br  0.12860873  0.04204720  0.91718466    -0.01230
Br2641     Br  0.17051906  0.13322510  0.80527317    -0.01190
Br2642     Br  0.14943923  0.17012848  0.86289402    -0.01180
C2643       C  0.16014561  0.88585124  0.67536739    -0.02300
C2644       C  0.17969097  0.90662819  0.65886202     0.07380
C2645       C  0.18872327  0.89503357  0.63119646    -0.02420
C2646       C  0.17840512  0.86499238  0.62066932    -0.02420
C2647       C  0.15317009  0.84833823  0.63389288     0.07510
C2648       C  0.15013740  0.85617234  0.66414617    -0.02610
Br2649     Br  0.14401413  0.82350994  0.69382570    -0.01160
Br2650     Br  0.14400890  0.89593200  0.71371833    -0.01230
Br2651     Br  0.20541531  0.84424415  0.59301645    -0.01190
Br2652     Br  0.21234867  0.92162053  0.60558927    -0.01180
C2653       C  0.38978954  0.10136112  0.66630042    -0.02300
C2654       C  0.39395436  0.10488530  0.63547331     0.07380
C2655       C  0.37195528  0.08605738  0.61712835    -0.02420
C2656       C  0.34593409  0.07008461  0.62937008    -0.02420
C2657       C  0.33991146  0.07224130  0.65954866     0.07510
C2658       C  0.36127388  0.09051268  0.67710358    -0.02610
Br2659     Br  0.35235388  0.10439920  0.71640991    -0.01160
Br2660     Br  0.42484765  0.09963480  0.69525305    -0.01230
Br2661     Br  0.31880845  0.04391578  0.60482936    -0.01190
Br2662     Br  0.37871474  0.07352967  0.57631465    -0.01180
C2663       C  0.30648193  0.90117731  0.63071213    -0.02300
C2664       C  0.32427988  0.92553765  0.64288188     0.07380
C2665       C  0.34772238  0.93854259  0.62555837    -0.02420
C2666       C  0.35391758  0.92629671  0.59703553    -0.02420
C2667       C  0.34003918  0.89756595  0.58695175     0.07510
C2668       C  0.31180272  0.89042397  0.60182748    -0.02610
Br2669     Br  0.27473822  0.87576389  0.58093976    -0.01160
Br2670     Br  0.27306108  0.88368396  0.65334954    -0.01230
Br2671     Br  0.36310376  0.95899428  0.56858789    -0.01190
Br2672     Br  0.36951429  0.97516028  0.64003568    -0.01180
C2673       C  0.30996367  0.15306111  0.84746517    -0.02300
C2674       C  0.34432420  0.15669248  0.84861544     0.07380
C2675       C  0.36200386  0.12971691  0.83695282    -0.02420
C2676       C  0.34750588  0.10063374  0.83044957    -0.02420
C2677       C  0.31460735  0.09791987  0.82988290     0.07510
C2678       C  0.29611156  0.12462132  0.83694982    -0.02610
Br2679     Br  0.25067647  0.12105115  0.83232858    -0.01160
Br2680     Br  0.27827894  0.18174675  0.86335167    -0.01230
Br2681     Br  0.37301129  0.06283199  0.82295583    -0.01190
Br2682     Br  0.40727396  0.12937724  0.83070575    -0.01180
C2683       C  0.03910403  0.37754092  0.07977892    -0.02300
C2684       C  0.04861392  0.40921324  0.07829687     0.07380
C2685       C  0.07582609  0.41806845  0.09336626    -0.02420
C2686       C  0.09131600  0.39674981  0.11281229    -0.02420
C2687       C  0.08815361  0.36260791  0.10930000     0.07510
C2688       C  0.05871743  0.35405493  0.09481676    -0.02610
Br2689     Br  0.04348479  0.31112111  0.09428081    -0.01160
Br2690     Br  0.99990519  0.36651164  0.05964730    -0.01230
Br2691     Br  0.10522986  0.41983460  0.14767393    -0.01190
Br2692     Br  0.09278498  0.45989589  0.08712890    -0.01180
C2693       C  0.07647344  0.56682053  0.86841879    -0.02300
C2694       C  0.07320339  0.58257968  0.89563812     0.07380
C2695       C  0.08420772  0.61347885  0.89796732    -0.02420
C2696       C  0.09823171  0.62849364  0.87368642    -0.02420
C2697       C  0.10454560  0.61171929  0.84638886     0.07510
C2698       C  0.09096072  0.58112180  0.84411549    -0.02610
Br2699     Br  0.09147592  0.55607392  0.80878296    -0.01160
Br2700     Br  0.06212908  0.52408815  0.86408704    -0.01230
Br2701     Br  0.10121860  0.67414407  0.87842651    -0.01190
Br2702     Br  0.07712262  0.63679426  0.93403252    -0.01180
C2703       C  0.90803870  0.58716892  0.10790249    -0.02300
C2704       C  0.89922758  0.56753119  0.08472634     0.07380
C2705       C  0.86701847  0.56702993  0.07547006    -0.02420
C2706       C  0.84353652  0.58477708  0.09046808    -0.02420
C2707       C  0.85182232  0.60338576  0.11596435     0.07510
C2708       C  0.88570158  0.60868764  0.11901821    -0.02610
Br2709     Br  0.90449980  0.64983291  0.12588791    -0.01160
Br2710     Br  0.95219953  0.58915965  0.12064468    -0.01230
Br2711     Br  0.80150101  0.58425153  0.07266756    -0.01190
Br2712     Br  0.85516032  0.54119306  0.04195736    -0.01180
C2713       C  0.11295773  0.45921792  0.90900363    -0.02300
C2714       C  0.08063874  0.45511517  0.90093077     0.07380
C2715       C  0.07263922  0.44440084  0.87280140    -0.02420
C2716       C  0.09673832  0.43635624  0.85401363    -0.02420
C2717       C  0.12823536  0.42828313  0.86601902     0.07510
C2718       C  0.13696599  0.44658491  0.89113951    -0.02610
Br2719     Br  0.17928878  0.46262211  0.89681378    -0.01160
Br2720     Br  0.12433812  0.48354871  0.94349641    -0.01230
Br2721     Br  0.08617832  0.44629566  0.81297754    -0.01190
Br2722     Br  0.02894562  0.43977507  0.85972779    -0.01180
C2723       C  0.88287056  0.43934958  0.09236324    -0.02300
C2724       C  0.91568729  0.43910583  0.09064264     0.07380
C2725       C  0.93448654  0.42673718  0.11490840    -0.02420
C2726       C  0.92094904  0.41048778  0.13865053    -0.02420
C2727       C  0.88687000  0.41092233  0.14139136     0.07510
C2728       C  0.86890415  0.42898105  0.11838440    -0.02610
Br2729     Br  0.82513439  0.44347014  0.12150639    -0.01160
Br2730     Br  0.85650152  0.45577128  0.05938907    -0.01230
Br2731     Br  0.95243413  0.38462055  0.16173311    -0.01190
Br2732     Br  0.98009360  0.43021591  0.11532107    -0.01180
C2733       C  0.15467266  0.84621441  0.10272445    -0.02300
C2734       C  0.15133773  0.84363494  0.07222330     0.07380
C2735       C  0.13331946  0.86584943  0.05574479    -0.02420
C2736       C  0.12258225  0.89438097  0.06823383    -0.02420
C2737       C  0.12795997  0.90000884  0.10002305     0.07510
C2738       C  0.14407829  0.87404112  0.11666129    -0.02610
Br2739     Br  0.15398483  0.87434264  0.15897387    -0.01160
Br2740     Br  0.17196278  0.80995048  0.12536186    -0.01230
Br2741     Br  0.09680771  0.91902666  0.03855072    -0.01190
Br2742     Br  0.11826183  0.85242193  0.01691015    -0.01180
C2743       C  0.15490892  0.68106485  0.83685052    -0.02300
C2744       C  0.14994516  0.64760790  0.83668449     0.07380
C2745       C  0.17208842  0.63032008  0.85539971    -0.02420
C2746       C  0.17681235  0.64158162  0.88385021    -0.02420
C2747       C  0.18187029  0.67392697  0.88635704     0.07510
C2748       C  0.17422148  0.69332453  0.86051920    -0.02610
Br2749     Br  0.18993451  0.73546892  0.85688444    -0.01160
Br2750     Br  0.13377992  0.71144569  0.81022719    -0.01230
Br2751     Br  0.16964352  0.61440457  0.91713444    -0.01190
Br2752     Br  0.21274152  0.62588693  0.83777427    -0.01180
C2753       C  0.34220933  0.64766644  0.92336422    -0.02300
C2754       C  0.30948232  0.64712819  0.92251960     0.07380
C2755       C  0.29392447  0.62366297  0.90618842    -0.02420
C2756       C  0.31020136  0.60480747  0.88580950    -0.02420
C2757       C  0.34394955  0.60650385  0.88411108     0.07510
C2758       C  0.35941053  0.62854217  0.90418926    -0.02610
Br2759     Br  0.40345995  0.63936760  0.90349439    -0.01160
Br2760     Br  0.36344935  0.67381119  0.95266928    -0.01230
Br2761     Br  0.28338018  0.58023551  0.85997983    -0.01190
Br2762     Br  0.24999598  0.61657644  0.91216802    -0.01180
C2763       C  0.35610251  0.61042929  0.06768929    -0.02300
C2764       C  0.37768477  0.63005837  0.08502895     0.07380
C2765       C  0.36995418  0.66321017  0.08427652    -0.02420
C2766       C  0.33913869  0.67384562  0.07552491    -0.02420
C2767       C  0.31860458  0.65487141  0.05799976     0.07510
C2768       C  0.32808246  0.62325943  0.05340469    -0.02610
Br2769     Br  0.30036867  0.59604718  0.03062688    -0.01160
Br2770     Br  0.36410779  0.56566796  0.06052175    -0.01230
Br2771     Br  0.32483899  0.71227833  0.09444577    -0.01190
Br2772     Br  0.39792873  0.69656672  0.09648087    -0.01180
C2773       C  0.28245750  0.85293411  0.10278151    -0.02300
C2774       C  0.30114192  0.83989025  0.08106047     0.07380
C2775       C  0.33395343  0.84026051  0.08447792    -0.02420
C2776       C  0.34838449  0.85275049  0.11025106    -0.02420
C2777       C  0.33009130  0.86866831  0.13268791     0.07510
C2778       C  0.29602680  0.86894951  0.12714186    -0.02610
Br2779     Br  0.26441724  0.89436140  0.14623321    -0.01160
Br2780     Br  0.23715479  0.84777842  0.09883766    -0.01230
Br2781     Br  0.39360785  0.84438800  0.11391817    -0.01190
Br2782     Br  0.35906741  0.82273109  0.05321154    -0.01180
C2783       C  0.37281004  0.66596330  0.69479245    -0.02300
C2784       C  0.39161567  0.68580481  0.67803249     0.07380
C2785       C  0.39095527  0.68251501  0.64750541    -0.02420
C2786       C  0.38070533  0.65385091  0.63654950    -0.02420
C2787       C  0.35483668  0.63822816  0.64945498     0.07510
C2788       C  0.35797077  0.63980679  0.68156533    -0.02610
Br2789     Br  0.34826705  0.60750587  0.71067905    -0.01160
Br2790     Br  0.36368950  0.67645788  0.73500144    -0.01230
Br2791     Br  0.42067054  0.62986897  0.63654016    -0.01190
Br2792     Br  0.41450725  0.70988822  0.62267225    -0.01180
C2793       C  0.35756069  0.83716424  0.61930561    -0.02300
C2794       C  0.37490158  0.84764930  0.59405889     0.07380
C2795       C  0.40700186  0.83549323  0.59438388    -0.02420
C2796       C  0.42089666  0.81976163  0.62008363    -0.02420
C2797       C  0.40481518  0.81801504  0.64712964     0.07510
C2798       C  0.37301574  0.82784356  0.64638081    -0.02610
Br2799     Br  0.34951182  0.82776273  0.68218027    -0.01160
Br2800     Br  0.31603722  0.81933354  0.61594384    -0.01230
Br2801     Br  0.46127730  0.79760887  0.61709481    -0.01190
Br2802     Br  0.43096697  0.83255871  0.55875808    -0.01180
C2803       C  0.36481268  0.64825087  0.84028177    -0.02300
C2804       C  0.37764265  0.61528968  0.84031192     0.07380
C2805       C  0.39762733  0.60914243  0.81570924    -0.02420
C2806       C  0.40749956  0.63423082  0.79715375    -0.02420
C2807       C  0.39924113  0.66621334  0.80277509     0.07510
C2808       C  0.37935941  0.67293839  0.82553035    -0.02610
Br2809     Br  0.37194840  0.71683521  0.83665825    -0.01160
Br2810     Br  0.32195844  0.66297227  0.84856529    -0.01230
Br2811     Br  0.43345997  0.62534598  0.76364707    -0.01190
Br2812     Br  0.40986891  0.56708753  0.80329476    -0.01180
C2813       C  0.56743545  0.69875110  0.88307603    -0.02300
C2814       C  0.58271648  0.70505379  0.85649652     0.07380
C2815       C  0.61408434  0.69432965  0.85467156    -0.02420
C2816       C  0.62954430  0.67728200  0.87869869    -0.02420
C2817       C  0.61259154  0.66558977  0.90429521     0.07510
C2818       C  0.57967683  0.67575167  0.90392011    -0.02610
Br2819     Br  0.54621396  0.65503209  0.92410230    -0.01160
Br2820     Br  0.52953246  0.72307115  0.89194868    -0.01230
Br2821     Br  0.67507701  0.67414528  0.87518623    -0.01190
Br2822     Br  0.63629244  0.70345811  0.81896805    -0.01180
C2823       C  0.57486683  0.88843303  0.70032340    -0.02300
C2824       C  0.58992703  0.85949671  0.70904620     0.07380
C2825       C  0.62030954  0.85318951  0.69910997    -0.02420
C2826       C  0.63446488  0.87550063  0.68041141    -0.02420
C2827       C  0.61559264  0.90086084  0.66512731     0.07510
C2828       C  0.58354264  0.90395825  0.67445940    -0.02610
Br2829     Br  0.54668491  0.91853940  0.65059168    -0.01160
Br2830     Br  0.54030073  0.90559964  0.72246128    -0.01230
Br2831     Br  0.68007675  0.87037873  0.67916741    -0.01190
Br2832     Br  0.64243238  0.81394355  0.71057213    -0.01180
C2833       C  0.16379318  0.14524390  0.39368319    -0.02300
C2834       C  0.16826754  0.17792676  0.39269163     0.07380
C2835       C  0.16035931  0.19448838  0.36584664    -0.02420
C2836       C  0.14040866  0.18086365  0.34401520    -0.02420
C2837       C  0.13668647  0.14683114  0.34353398     0.07510
C2838       C  0.15234642  0.12954776  0.36830300    -0.02610
Br2839     Br  0.16234543  0.08432113  0.36860233    -0.01160
Br2840     Br  0.17678905  0.12079271  0.42885497    -0.01230
Br2841     Br  0.11575143  0.21301929  0.32108837    -0.01190
Br2842     Br  0.17718509  0.23586757  0.35728653    -0.01180
C2843       C  0.34636843  0.15597959  0.58590729    -0.02300
C2844       C  0.34197524  0.18888704  0.58794621     0.07380
C2845       C  0.36909858  0.20614058  0.59612760    -0.02420
C2846       C  0.39733639  0.18960935  0.60735210    -0.02420
C2847       C  0.39982793  0.15512032  0.60446597     0.07510
C2848       C  0.37724060  0.14413959  0.58395064    -0.02610
Br2849     Br  0.39058397  0.14230297  0.54369044    -0.01160
Br2850     Br  0.31196115  0.12905259  0.57568978    -0.01230
Br2851     Br  0.43101254  0.21749725  0.61950956    -0.01190
Br2852     Br  0.36957926  0.25069857  0.58606958    -0.01180
C2853       C  0.34899681  0.32156224  0.64544989    -0.02300
C2854       C  0.35264841  0.35557529  0.64437203     0.07380
C2855       C  0.33723284  0.37162578  0.61891240    -0.02420
C2856       C  0.32701700  0.35456212  0.59417587    -0.02420
C2857       C  0.32023037  0.32251488  0.59754559     0.07510
C2858       C  0.32796104  0.30734420  0.62504032    -0.02610
Br2859     Br  0.31071782  0.26680057  0.63569900    -0.01160
Br2860     Br  0.37444037  0.29022697  0.66860052    -0.01230
Br2861     Br  0.32007928  0.37675820  0.55662982    -0.01190
Br2862     Br  0.32448370  0.41628723  0.61713324    -0.01180
C2863       C  0.09561533  0.32618237  0.38220557    -0.02300
C2864       C  0.09481624  0.36004703  0.38754002     0.07380
C2865       C  0.11807881  0.36985494  0.40904194    -0.02420
C2866       C  0.14691030  0.35324581  0.41232668    -0.02420
C2867       C  0.14848040  0.32061911  0.40683593     0.07510
C2868       C  0.12090523  0.30666391  0.39498969    -0.02610
Br2869     Br  0.11615611  0.26157807  0.39996423    -0.01160
Br2870     Br  0.06321023  0.30354051  0.36097583    -0.01230
Br2871     Br  0.18343465  0.37529941  0.42718269    -0.01190
Br2872     Br  0.10916943  0.39716639  0.44176548    -0.01180
C2873       C  0.31360859  0.10245155  0.39447867    -0.02300
C2874       C  0.33448073  0.11329574  0.37234191     0.07380
C2875       C  0.32986306  0.14637524  0.36383366    -0.02420
C2876       C  0.31724672  0.16815488  0.38318790    -0.02420
C2877       C  0.29849771  0.15761336  0.40549989     0.07510
C2878       C  0.29508192  0.12474038  0.41011306    -0.02610
Br2879     Br  0.26590999  0.11045243  0.43888727    -0.01160
Br2880     Br  0.30939631  0.05790592  0.40475691    -0.01230
Br2881     Br  0.32542861  0.21279659  0.37802485    -0.01190
Br2882     Br  0.32291784  0.16219983  0.32363280    -0.01180
C2883       C  0.14802714  0.34202374  0.58898921    -0.02300
C2884       C  0.18055303  0.34208659  0.58545848     0.07380
C2885       C  0.19621586  0.37046659  0.59108980    -0.02420
C2886       C  0.17894157  0.39794567  0.60033823    -0.02420
C2887       C  0.14683245  0.39531110  0.61007051     0.07510
C2888       C  0.13560281  0.36338712  0.60872675    -0.02610
Br2889     Br  0.13507656  0.33669588  0.64336469    -0.01160
Br2890     Br  0.12271860  0.30702151  0.57598000    -0.01230
Br2891     Br  0.20123897  0.43693556  0.59748148    -0.01190
Br2892     Br  0.24060210  0.37200997  0.58326719    -0.01180
C2893       C  0.16276703  0.38055714  0.18132514    -0.02300
C2894       C  0.17687839  0.40479656  0.16422165     0.07380
C2895       C  0.17817582  0.40073482  0.13339202    -0.02420
C2896       C  0.15834445  0.37868785  0.11942133    -0.02420
C2897       C  0.14081895  0.35652003  0.13676900     0.07510
C2898       C  0.14847226  0.35478690  0.16754786    -0.02610
Br2899     Br  0.14555592  0.31645601  0.19141791    -0.01160
Br2900     Br  0.15797953  0.38216495  0.22368669    -0.01230
Br2901     Br  0.15412510  0.38227157  0.07640382    -0.01190
Br2902     Br  0.20411805  0.42704897  0.10930537    -0.01180
C2903       C  0.35434025  0.54233927  0.14117422    -0.02300
C2904       C  0.32608536  0.55861715  0.14734658     0.07380
C2905       C  0.32411085  0.59143263  0.14386609    -0.02420
C2906       C  0.35096648  0.60839353  0.13701626    -0.02420
C2907       C  0.37922623  0.59264109  0.12611093     0.07510
C2908       C  0.37974364  0.55823919  0.12850947    -0.02610
Br2909     Br  0.41146289  0.52924387  0.11375570    -0.01160
Br2910     Br  0.35821533  0.49773855  0.15195036    -0.01230
Br2911     Br  0.34780373  0.65305008  0.14694567    -0.01190
Br2912     Br  0.28439187  0.61332471  0.15175728    -0.01180
C2913       C  0.32986382  0.62125020  0.37042758    -0.02300
C2914       C  0.34072093  0.64773955  0.35305525     0.07380
C2915       C  0.33445190  0.64583661  0.32169614    -0.02420
C2916       C  0.32682121  0.61668200  0.30888160    -0.02420
C2917       C  0.31571876  0.59142028  0.32612592     0.07510
C2918       C  0.31667919  0.59429029  0.35697082    -0.02610
Br2919     Br  0.30379988  0.55909112  0.38120597    -0.01160
Br2920     Br  0.32984508  0.62106477  0.41323895    -0.01230
Br2921     Br  0.33827868  0.61113604  0.26806114    -0.01190
Br2922     Br  0.33560288  0.68013490  0.29302617    -0.01180
C2923       C  0.12256468  0.45736602  0.33285554    -0.02300
C2924       C  0.15435334  0.44720611  0.33880175     0.07380
C2925       C  0.16019259  0.41652226  0.34977923    -0.02420
C2926       C  0.13499533  0.39581474  0.35253743    -0.02420
C2927       C  0.10250992  0.40752890  0.35378501     0.07510
C2928       C  0.09695417  0.43757331  0.33923721    -0.02610
Br2929     Br  0.05558070  0.45226889  0.32580419    -0.01160
Br2930     Br  0.11454058  0.49898760  0.31526606    -0.01230
Br2931     Br  0.14619528  0.35281135  0.34084896    -0.01190
Br2932     Br  0.20364376  0.40070392  0.35417166    -0.01180
C2933       C  0.17829861  0.56905270  0.37912440    -0.02300
C2934       C  0.17173540  0.57491038  0.34809100     0.07380
C2935       C  0.14346337  0.59207387  0.34015996    -0.02420
C2936       C  0.12218851  0.60045034  0.36179760    -0.02420
C2937       C  0.13229147  0.60342518  0.39237134     0.07510
C2938       C  0.15890727  0.58313061  0.40098758    -0.02610
Br2939     Br  0.16892203  0.57268382  0.44243035    -0.01160
Br2940     Br  0.21505946  0.54406610  0.39338785    -0.01230
Br2941     Br  0.07865209  0.59302768  0.34905630    -0.01190
Br2942     Br  0.13021176  0.60344190  0.29972581    -0.01180
C2943       C  0.33027968  0.39862954  0.14476840    -0.02300
C2944       C  0.31221606  0.42645118  0.13875484     0.07380
C2945       C  0.31310325  0.43964502  0.10941742    -0.02420
C2946       C  0.33005584  0.42356589  0.08688807    -0.02420
C2947       C  0.34897574  0.39553723  0.09393326     0.07510
C2948       C  0.35281290  0.38860673  0.12509971    -0.02610
Br2949     Br  0.39336892  0.38090294  0.14563897    -0.01160
Br2950     Br  0.32572912  0.37262551  0.17968435    -0.01230
Br2951     Br  0.32545273  0.43975255  0.04651364    -0.01190
Br2952     Br  0.29090177  0.47913022  0.09869912    -0.01180
C2953       C  0.92110260  0.10897301  0.84967383    -0.02300
C2954       C  0.88715899  0.10644254  0.84636880     0.07380
C2955       C  0.87168305  0.12496936  0.82218280    -0.02420
C2956       C  0.88784223  0.14829275  0.80689993    -0.02420
C2957       C  0.92008650  0.15163011  0.81235732     0.07510
C2958       C  0.93671915  0.13141278  0.83258809    -0.02610
Br2959     Br  0.98133071  0.13681528  0.83853637    -0.01160
Br2960     Br  0.94965670  0.08238704  0.87475349    -0.01230
Br2961     Br  0.86508357  0.17903628  0.78086731    -0.01190
Br2962     Br  0.82717918  0.12445013  0.81065684    -0.01180
C2963       C  0.82571875  0.10384861  0.90935800    -0.02300
C2964       C  0.84497272  0.11243209  0.88499575     0.07380
C2965       C  0.84520339  0.14620304  0.87853530    -0.02420
C2966       C  0.82084956  0.16624430  0.88714862    -0.02420
C2967       C  0.80548575  0.15892796  0.91290398     0.07510
C2968       C  0.80611629  0.12688230  0.92279108    -0.02610
Br2969     Br  0.77607793  0.11285155  0.95140323    -0.01160
Br2970     Br  0.82267927  0.06097144  0.92462263    -0.01230
Br2971     Br  0.81179841  0.20462047  0.86405462    -0.01190
Br2972     Br  0.88218802  0.17190784  0.87320266    -0.01180
C2973       C  0.62365460  0.90528099  0.91721499    -0.02300
C2974       C  0.64167638  0.91899563  0.89536258     0.07380
C2975       C  0.62984461  0.95032291  0.88653595    -0.02420
C2976       C  0.59791701  0.96029170  0.89206526    -0.02420
C2977       C  0.57787094  0.94048194  0.90758503     0.07510
C2978       C  0.59081255  0.91052141  0.91649076    -0.02610
Br2979     Br  0.56524160  0.87838524  0.93297787    -0.01160
Br2980     Br  0.64157624  0.90871471  0.95676388    -0.01230
Br2981     Br  0.58013817  0.99901313  0.87512173    -0.01190
Br2982     Br  0.65625342  0.98216637  0.87007193    -0.01180
C2983       C  0.60931634  0.89498412  0.84064694    -0.02300
C2984       C  0.63526056  0.87781192  0.85615154     0.07380
C2985       C  0.63295424  0.84401808  0.85710466    -0.02420
C2986       C  0.60382906  0.83004414  0.85207763    -0.02420
C2987       C  0.57892775  0.84704161  0.83767946     0.07510
C2988       C  0.58148624  0.87944879  0.83198908    -0.02610
Br2989     Br  0.54718970  0.90197929  0.81031414    -0.01160
Br2990     Br  0.61224230  0.93699532  0.82314087    -0.01230
Br2991     Br  0.59810749  0.78646035  0.86398780    -0.01190
Br2992     Br  0.66833793  0.81392647  0.85668624    -0.01180
C2993       C  0.84804793  0.64942094  0.83638174    -0.02300
C2994       C  0.83461710  0.66837226  0.85887832     0.07380
C2995       C  0.80116305  0.66363114  0.86166820    -0.02420
C2996       C  0.78649314  0.63680597  0.84772358    -0.02420
C2997       C  0.80500042  0.61215045  0.83514008     0.07510
C2998       C  0.83677543  0.61928370  0.83040760    -0.02610
Br2999     Br  0.86664607  0.58892183  0.81559305    -0.01160
Br3000     Br  0.86397654  0.66896953  0.80135768    -0.01230
Br3001     Br  0.74142444  0.63598401  0.84152458    -0.01190
Br3002     Br  0.77288785  0.69477852  0.87819870    -0.01180
C3003       C  0.90757793  0.66854228  0.91570250    -0.02300
C3004       C  0.88059420  0.66038711  0.89790736     0.07380
C3005       C  0.87711201  0.62665157  0.89432709    -0.02420
C3006       C  0.90334054  0.60538578  0.89742131    -0.02420
C3007       C  0.93187780  0.61545902  0.91042596     0.07510
C3008       C  0.93402778  0.64753911  0.91874658    -0.02610
Br3009     Br  0.97353845  0.66337345  0.93456227    -0.01160
Br3010     Br  0.90323258  0.69596153  0.94918391    -0.01230
Br3011     Br  0.89847195  0.56127055  0.88660552    -0.01190
Br3012     Br  0.83766046  0.60546059  0.89889317    -0.01180
C3013       C  0.87355039  0.91849854  0.62361542    -0.02300
C3014       C  0.89143636  0.90396232  0.64855183     0.07380
C3015       C  0.92495540  0.91045800  0.65031509    -0.02420
C3016       C  0.93872227  0.92945384  0.62840261    -0.02420
C3017       C  0.92129555  0.93936389  0.60232653     0.07510
C3018       C  0.88846860  0.93523530  0.60099309    -0.02610
Br3019     Br  0.86306177  0.95505877  0.56904993    -0.01160
Br3020     Br  0.82754060  0.91695578  0.61976841    -0.01230
Br3021     Br  0.98297651  0.94043867  0.63425044    -0.01190
Br3022     Br  0.95648575  0.89076650  0.67776755    -0.01180
C3023       C  0.87229599  0.85042962  0.61481178    -0.02300
C3024       C  0.86035078  0.85411738  0.64455501     0.07380
C3025       C  0.83125709  0.83899183  0.64810820    -0.02420
C3026       C  0.80909179  0.83851334  0.62425971    -0.02420
C3027       C  0.81982162  0.83538699  0.59500422     0.07510
C3028       C  0.85207767  0.84098687  0.59075524    -0.02610
Br3029     Br  0.86904169  0.83594508  0.55187758    -0.01160
Br3030     Br  0.91629663  0.85582084  0.60484645    -0.01230
Br3031     Br  0.76594445  0.83215544  0.63435216    -0.01190
Br3032     Br  0.83509428  0.79466703  0.65957055    -0.01180
C3033       C  0.70533016  0.93441268  0.80951079    -0.02300
C3034       C  0.73467843  0.94047433  0.82291640     0.07380
C3035       C  0.73723712  0.93806685  0.85422761    -0.02420
C3036       C  0.71042987  0.93036367  0.87030703    -0.02420
C3037       C  0.68417446  0.91518844  0.85560165     0.07510
C3038       C  0.68404516  0.91566887  0.82383475    -0.02610
Br3039     Br  0.66550899  0.88525247  0.79694535    -0.01160
Br3040     Br  0.68769736  0.96315552  0.78037967    -0.01230
Br3041     Br  0.71282317  0.93668868  0.91288225    -0.01190
Br3042     Br  0.77752427  0.94097672  0.87566973    -0.01180
C3043       C  0.81310160  0.89293458  0.73385430    -0.02300
C3044       C  0.80907335  0.92601317  0.73536448     0.07380
C3045       C  0.82115153  0.94421308  0.71226504    -0.02420
C3046       C  0.84076469  0.93072659  0.69036118    -0.02420
C3047       C  0.84657300  0.89631148  0.68841019     0.07510
C3048       C  0.83094052  0.87830950  0.71115301    -0.02610
Br3049     Br  0.83909359  0.83365904  0.71884549    -0.01160
Br3050     Br  0.79742757  0.86733456  0.76591416    -0.01230
Br3051     Br  0.86459149  0.96404607  0.67139778    -0.01190
Br3052     Br  0.81325711  0.98972156  0.71274432    -0.01180
C3053       C  0.85089949  0.02506005  0.80446336    -0.02300
C3054       C  0.81903751  0.01772971  0.80707348     0.07380
C3055       C  0.80005131  0.04019904  0.82162701    -0.02420
C3056       C  0.81350484  0.06212815  0.84160077    -0.02420
C3057       C  0.84749364  0.06420125  0.84548950     0.07510
C3058       C  0.86550997  0.04504520  0.82521887    -0.02610
Br3059     Br  0.91093120  0.03931394  0.82680519    -0.01160
Br3060     Br  0.87287384  0.01732328  0.76834085    -0.01230
Br3061     Br  0.78233743  0.08841721  0.86022135    -0.01190
Br3062     Br  0.75518836  0.04344350  0.81027207    -0.01180
C3063       C  0.86609670  0.94975035  0.11893424    -0.02300
C3064       C  0.85254303  0.92563702  0.10006927     0.07380
C3065       C  0.81891306  0.92324026  0.10158800    -0.02420
C3066       C  0.80292995  0.93500742  0.12641537    -0.02420
C3067       C  0.81816272  0.95494837  0.14770622     0.07510
C3068       C  0.84897517  0.96415455  0.14191433    -0.02610
Br3069     Br  0.86882726  0.99585631  0.16634207    -0.01160
Br3070     Br  0.90896764  0.96347376  0.11657695    -0.01230
Br3071     Br  0.76134790  0.91833412  0.13211082    -0.01190
Br3072     Br  0.79140605  0.91006937  0.06883606    -0.01180
C3073       C  0.91351918  0.85292441  0.10235159    -0.02300
C3074       C  0.89319124  0.87988622  0.10800528     0.07380
C3075       C  0.89173437  0.88773369  0.13897094    -0.02420
C3076       C  0.91692445  0.88050418  0.15894566    -0.02420
C3077       C  0.93662007  0.85447918  0.15335320     0.07510
C3078       C  0.93508997  0.84083891  0.12481967    -0.02610
Br3079     Br  0.96543701  0.80737685  0.11569703    -0.01160
Br3080     Br  0.91299615  0.83011815  0.06574740    -0.01230
Br3081     Br  0.91881225  0.90151125  0.19681160    -0.01190
Br3082     Br  0.85286927  0.88731190  0.16002950    -0.01180
C3083       C  0.12366972  0.95469097  0.82257363    -0.02300
C3084       C  0.15547951  0.94801834  0.83185754     0.07380
C3085       C  0.16189696  0.92252694  0.85106825    -0.02420
C3086       C  0.13726911  0.90305089  0.85969258    -0.02420
C3087       C  0.10396679  0.91322332  0.85584780     0.07510
C3088       C  0.09857800  0.93619140  0.83265294    -0.02610
Br3089     Br  0.05849833  0.94131718  0.81132379    -0.01160
Br3090     Br  0.11428380  0.99099671  0.79698951    -0.01230
Br3091     Br  0.15236580  0.85958640  0.86774641    -0.01190
Br3092     Br  0.20549922  0.91247240  0.86316503    -0.01180
C3093       C  0.09439938  0.84516395  0.90561207    -0.02300
C3094       C  0.09527608  0.87870044  0.90034705     0.07380
C3095       C  0.11610728  0.89585931  0.92078421    -0.02420
C3096       C  0.13664071  0.87976115  0.94162189    -0.02420
C3097       C  0.13415544  0.84710578  0.94590263     0.07510
C3098       C  0.10885599  0.83190749  0.93137782    -0.02610
Br3099     Br  0.08888463  0.79604331  0.94920160    -0.01160
Br3100     Br  0.07784254  0.81359835  0.87915899    -0.01230
Br3101     Br  0.16683739  0.90319154  0.96575485    -0.01190
Br3102     Br  0.12283387  0.94108412  0.91903444    -0.01180
C3103       C  0.93085495  0.72505946  0.83953246    -0.02300
C3104       C  0.91743240  0.75421128  0.82875532     0.07380
C3105       C  0.88415113  0.75843312  0.82985313    -0.02420
C3106       C  0.86534090  0.73490663  0.84271413    -0.02420
C3107       C  0.87936631  0.70721688  0.85746800     0.07510
C3108       C  0.91196615  0.70096719  0.85123058    -0.02610
Br3109     Br  0.92949428  0.65836266  0.84797981    -0.01160
Br3110     Br  0.97571149  0.71759737  0.83932616    -0.01230
Br3111     Br  0.82016480  0.74230206  0.84017459    -0.01190
Br3112     Br  0.86425872  0.79882804  0.81796303    -0.01180
C3113       C  0.99579072  0.86292180  0.84508009    -0.02300
C3114       C  0.00521413  0.83722520  0.82786650     0.07380
C3115       C  0.03652590  0.83689932  0.81795056    -0.02420
C3116       C  0.05936613  0.85824764  0.82972550    -0.02420
C3117       C  0.05120102  0.88033966  0.85244499     0.07510
C3118       C  0.01731832  0.88668345  0.85256037    -0.02610
Br3119     Br  0.99762612  0.92897860  0.85369828    -0.01160
Br3120     Br  0.95219385  0.86755390  0.85608435    -0.01230
Br3121     Br  0.09960781  0.85758704  0.81130988    -0.01190
Br3122     Br  0.04799662  0.80711784  0.78788354    -0.01180
C3123       C  0.91294004  0.86073068  0.74690223    -0.02300
C3124       C  0.92729888  0.83072255  0.74449485     0.07380
C3125       C  0.92971115  0.81752421  0.71647738    -0.02420
C3126       C  0.91230966  0.83088299  0.69166612    -0.02420
C3127       C  0.89737749  0.86226883  0.69329446     0.07510
C3128       C  0.90295585  0.87792824  0.72133209    -0.02610
Br3129     Br  0.90374399  0.92334906  0.72617057    -0.01160
Br3130     Br  0.90681742  0.87871166  0.78552867    -0.01230
Br3131     Br  0.91357940  0.80418630  0.65750654    -0.01190
Br3132     Br  0.96004574  0.78293475  0.71230530    -0.01180
C3133       C  0.91469069  0.06025158  0.94117236    -0.02300
C3134       C  0.92278771  0.02873049  0.93506625     0.07380
C3135       C  0.90749154  0.01411437  0.91098978    -0.02420
C3136       C  0.88470400  0.03122426  0.89341487    -0.02420
C3137       C  0.88431488  0.06567908  0.89297400     0.07510
C3138       C  0.89882415  0.07943498  0.91926093    -0.02610
Br3139     Br  0.90160196  0.12406596  0.92697201    -0.01160
Br3140     Br  0.92409553  0.07717354  0.97987610    -0.01230
Br3141     Br  0.85040170  0.00431543  0.87996359    -0.01190
Br3142     Br  0.91457840  0.96909396  0.90408052    -0.01180
C3143       C  0.94894162  0.93386924  0.04022299    -0.02300
C3144       C  0.93324505  0.95184730  0.01698242     0.07380
C3145       C  0.89992064  0.95439675  0.01704133    -0.02420
C3146       C  0.88318125  0.94406716  0.04140713    -0.02420
C3147       C  0.89739980  0.92253319  0.06332257     0.07510
C3148       C  0.93166300  0.92034065  0.06349004    -0.02610
Br3149     Br  0.95823003  0.90583161  0.09694062    -0.01160
Br3150     Br  0.99419815  0.92434317  0.03990228    -0.01230
Br3151     Br  0.84058055  0.96143919  0.04214832    -0.01190
Br3152     Br  0.87537970  0.96309996  0.98031769    -0.01180
C3153       C  0.00748942  0.92015046  0.92787211    -0.02300
C3154       C  0.01134013  0.95206945  0.93442575     0.07380
C3155       C  0.03618943  0.96792374  0.92156302    -0.02420
C3156       C  0.05392082  0.95341382  0.89913247    -0.02420
C3157       C  0.05420407  0.91933392  0.89568100     0.07510
C3158       C  0.03127612  0.90317756  0.91347035    -0.02610
Br3159     Br  0.02635127  0.85778357  0.91715146    -0.01160
Br3160     Br  0.96709424  0.90039684  0.93398956    -0.01230
Br3161     Br  0.07418735  0.98370229  0.87454715    -0.01190
Br3162     Br  0.04671519  0.00953832  0.93558628    -0.01180
C3163       C  0.74069113  0.85422472  0.90602861    -0.02300
C3164       C  0.73299979  0.84472333  0.93454246     0.07380
C3165       C  0.70110141  0.84525325  0.94185779    -0.02420
C3166       C  0.67705027  0.85508851  0.92072507    -0.02420
C3167       C  0.68482935  0.87066780  0.89361000     0.07510
C3168       C  0.71691866  0.86369395  0.88501768    -0.02610
Br3169     Br  0.72940766  0.85914374  0.84426277    -0.01160
Br3170     Br  0.78459612  0.85511761  0.89564226    -0.01230
Br3171     Br  0.63712240  0.83487546  0.92578744    -0.01190
Br3172     Br  0.69035696  0.83197635  0.98106415    -0.01180
C3173       C  0.83739748  0.86895590  0.00769868    -0.02300
C3174       C  0.81698897  0.84552030  0.01635255     0.07380
C3175       C  0.81757706  0.83636045  0.04637397    -0.02420
C3176       C  0.83616989  0.85282062  0.06800636    -0.02420
C3177       C  0.85664740  0.87795892  0.05956084     0.07510
C3178       C  0.86054005  0.87986196  0.02786609    -0.02610
Br3179     Br  0.90135638  0.87916241  0.00961812    -0.01160
Br3180     Br  0.83721220  0.88286248  0.96675198    -0.01230
Br3181     Br  0.83255080  0.83851261  0.10807384    -0.01190
Br3182     Br  0.79146546  0.80183394  0.05755908    -0.01180
C3183       C  0.84147557  0.76754290  0.92264008    -0.02300
C3184       C  0.81589590  0.76002789  0.93980123     0.07380
C3185       C  0.80767888  0.72821572  0.94219598    -0.02420
C3186       C  0.82392922  0.70423406  0.92629796    -0.02420
C3187       C  0.84607723  0.71188620  0.90416591     0.07510
C3188       C  0.85821006  0.74368453  0.90748287    -0.02610
Br3189     Br  0.90191795  0.75490102  0.90155561    -0.01160
Br3190     Br  0.85442756  0.81114286  0.92046951    -0.01230
Br3191     Br  0.81781242  0.66203238  0.93998468    -0.01190
Br3192     Br  0.77351078  0.71780962  0.96746954    -0.01180
C3193       C  0.39280440  0.17257468  0.13441722    -0.02300
C3194       C  0.38984713  0.18243431  0.16367068     0.07380
C3195       C  0.36030000  0.17937550  0.17690741    -0.02420
C3196       C  0.33786573  0.15884053  0.16486050    -0.02420
C3197       C  0.33904089  0.14954756  0.13408730     0.07510
C3198       C  0.36707131  0.15885080  0.11901320    -0.02610
Br3199     Br  0.37152646  0.15486687  0.07657752    -0.01160
Br3200     Br  0.43101791  0.18142080  0.11404300    -0.01230
Br3201     Br  0.31374104  0.13993768  0.19631671    -0.01190
Br3202     Br  0.34887934  0.20276359  0.21220134    -0.01180
C3203       C  0.62620465  0.33951592  0.30362830    -0.02300
C3204       C  0.59853399  0.32921839  0.31689567     0.07380
C3205       C  0.59637263  0.33081718  0.34758795    -0.02420
C3206       C  0.62114549  0.34315288  0.36490894    -0.02420
C3207       C  0.64667703  0.35937330  0.35163858     0.07510
C3208       C  0.65035134  0.35422150  0.32061009    -0.02610
Br3209     Br  0.68933728  0.36082873  0.30090584    -0.01160
Br3210     Br  0.63034078  0.33552858  0.26145582    -0.01230
Br3211     Br  0.61759731  0.33763322  0.40695850    -0.01190
Br3212     Br  0.55893587  0.31630587  0.36644046    -0.01180
C3213       C  0.59402768  0.19736215  0.36446385    -0.02300
C3214       C  0.58339335  0.18070515  0.33955130     0.07380
C3215       C  0.57783323  0.14821333  0.34341160    -0.02420
C3216       C  0.58213377  0.13260463  0.37136773    -0.02420
C3217       C  0.59798531  0.14748511  0.39649999     0.07510
C3218       C  0.60148268  0.18177639  0.39239758    -0.02610
Br3219     Br  0.61924892  0.21078567  0.42106206    -0.01160
Br3220     Br  0.59999287  0.24233789  0.35877020    -0.01230
Br3221     Br  0.56793433  0.08915592  0.37210470    -0.01190
Br3222     Br  0.56556221  0.12428957  0.30864181    -0.01180
C3223       C  0.60598804  0.33970557  0.16600929    -0.02300
C3224       C  0.59020996  0.34634724  0.19191607     0.07380
C3225       C  0.57880823  0.37792131  0.19585624    -0.02420
C3226       C  0.58496247  0.40262597  0.17530851    -0.02420
C3227       C  0.60503356  0.39693844  0.15112310     0.07510
C3228       C  0.60900588  0.36362978  0.14426001    -0.02610
Br3229     Br  0.60500949  0.34792234  0.10405653    -0.01160
Br3230     Br  0.61834229  0.29623442  0.15789934    -0.01230
Br3231     Br  0.56476935  0.44306998  0.18164435    -0.01190
Br3232     Br  0.55547983  0.38734443  0.23091961    -0.01180
C3233       C  0.42772419  0.31480328  0.11076227    -0.02300
C3234       C  0.40973912  0.30217722  0.13368815     0.07380
C3235       C  0.37681953  0.30441237  0.12924221    -0.02420
C3236       C  0.36318584  0.32277749  0.10501919    -0.02420
C3237       C  0.38189078  0.34458280  0.08800964     0.07510
C3238       C  0.41547557  0.33987462  0.09259367    -0.02610
Br3239     Br  0.44723505  0.37092963  0.08536748    -0.01160
Br3240     Br  0.46886535  0.29699359  0.10209792    -0.01230
Br3241     Br  0.31856107  0.31735903  0.09847400    -0.01190
Br3242     Br  0.35028358  0.28171821  0.15570186    -0.01180
C3243       C  0.37312381  0.11556848  0.30322189    -0.02300
C3244       C  0.37847709  0.11264565  0.33538077     0.07380
C3245       C  0.39644910  0.13770139  0.34830651    -0.02420
C3246       C  0.40077736  0.16617295  0.33251962    -0.02420
C3247       C  0.39750584  0.16740762  0.30145717     0.07510
C3248       C  0.38715032  0.14015412  0.28702387    -0.02610
Br3249     Br  0.39267742  0.13620189  0.24499390    -0.01160
Br3250     Br  0.34050275  0.09548718  0.27902135    -0.01230
Br3251     Br  0.41142676  0.20444853  0.35358724    -0.01190
Br3252     Br  0.41453250  0.13648658  0.38791849    -0.01180
C3253       C  0.58475169  0.42575922  0.38388102    -0.02300
C3254       C  0.59098886  0.44193242  0.40985777     0.07380
C3255       C  0.62251943  0.44440907  0.42085529    -0.02420
C3256       C  0.64745812  0.42835370  0.40698860    -0.02420
C3257       C  0.64084436  0.40636950  0.38406021     0.07510
C3258       C  0.60975084  0.41132972  0.36931268    -0.02610
Br3259     Br  0.60129601  0.40991447  0.32665446    -0.01160
Br3260     Br  0.54162853  0.42231732  0.36855377    -0.01230
Br3261     Br  0.68965915  0.44114243  0.41762724    -0.01190
Br3262     Br  0.63197233  0.46926893  0.45568659    -0.01180
C3263       C  0.39758647  0.59401201  0.57416850    -0.02300
C3264       C  0.41103881  0.56549741  0.58577513     0.07380
C3265       C  0.40308969  0.55541909  0.61393223    -0.02420
C3266       C  0.37676536  0.56963427  0.62760994    -0.02420
C3267       C  0.35817046  0.59551675  0.61337538     0.07510
C3268       C  0.37256178  0.60972717  0.58789992    -0.02610
Br3269     Br  0.36425374  0.65357512  0.57285054    -0.01160
Br3270     Br  0.41811548  0.61543201  0.54253622    -0.01230
Br3271     Br  0.37156462  0.55370708  0.66711946    -0.01190
Br3272     Br  0.43130043  0.52513824  0.63542019    -0.01180
C3273       C  0.42599979  0.62906280  0.42361022    -0.02300
C3274       C  0.43406793  0.60117322  0.40825203     0.07380
C3275       C  0.42278925  0.59868943  0.37901033    -0.02420
C3276       C  0.40432955  0.62393431  0.36558551    -0.02420
C3277       C  0.39004886  0.64928682  0.38310747     0.07510
C3278       C  0.40059061  0.64922414  0.41378908    -0.02610
Br3279     Br  0.37995952  0.66978683  0.44652763    -0.01160
Br3280     Br  0.45076821  0.64097703  0.45821712    -0.01230
Br3281     Br  0.40360724  0.62319913  0.32269791    -0.01190
Br3282     Br  0.43246562  0.56060970  0.35724775    -0.01180
C3283       C  0.39987683  0.44085520  0.60844008    -0.02300
C3284       C  0.41646078  0.42293022  0.58823778     0.07380
C3285       C  0.42077688  0.39042844  0.59289449    -0.02420
C3286       C  0.40992765  0.37588496  0.61871644    -0.02420
C3287       C  0.39484578  0.39414515  0.64178633     0.07510
C3288       C  0.39210518  0.42816669  0.63621860    -0.02610
Br3289     Br  0.37427157  0.46036535  0.66158049    -0.01160
Br3290     Br  0.38119938  0.48067053  0.59350307    -0.01230
Br3291     Br  0.41770918  0.33032416  0.62079759    -0.01190
Br3292     Br  0.43953378  0.36557050  0.56212346    -0.01180
C3293       C  0.55510180  0.60472933  0.39016759    -0.02300
C3294       C  0.57259801  0.57913177  0.40303378     0.07380
C3295       C  0.59467944  0.56314225  0.38575568    -0.02420
C3296       C  0.60013453  0.57351879  0.35668353    -0.02420
C3297       C  0.58821471  0.60384947  0.34647153     0.07510
C3298       C  0.56029997  0.61423612  0.36085470    -0.02610
Br3299     Br  0.52245119  0.62889725  0.33866285    -0.01160
Br3300     Br  0.52113389  0.62428663  0.41156796    -0.01230
Br3301     Br  0.61059409  0.53949551  0.32985231    -0.01190
Br3302     Br  0.61528427  0.52484977  0.40089406    -0.01180
C3303       C  0.58274246  0.41360475  0.60603187    -0.02300
C3304       C  0.55894819  0.40304829  0.58712809     0.07380
C3305       C  0.55354655  0.37052631  0.58515426    -0.02420
C3306       C  0.57323351  0.34827736  0.60119750    -0.02420
C3307       C  0.60213515  0.35798195  0.61565451     0.07510
C3308       C  0.60120699  0.39172608  0.62304478    -0.02610
Br3309     Br  0.61650700  0.41192574  0.65907140    -0.01160
Br3310     Br  0.59233069  0.45843773  0.60646140    -0.01230
Br3311     Br  0.55433394  0.30790378  0.60678885    -0.01190
Br3312     Br  0.52092150  0.35613946  0.55789769    -0.01180
loop_ 
_geom_bond_atom_site_label_1 
_geom_bond_atom_site_label_2 
_geom_bond_distance 
_geom_bond_site_symmetry_2 
_ccdc_geom_bond_type 
Zr1           O2   2.433       .  S
Zr1           O3   2.381       .  S
Zr1           O4   2.509       .  S
Zr1           O7   2.488       .  S
Zr1           O9   2.372       .  S
Zr1          O10   2.388       .  S
Zr1          O11   2.409       .  S
Zr1          O12   2.413       .  S
O2           H58   0.990       .  S
O2           H66   0.990       .  S
O3           C23   1.276       .  A
O4           C25   1.299       .  A
O5          Zr15   2.346       .  S
O5           C24   1.268       .  A
O6          Zr14   2.366       .  S
O6           C25   1.269       .  A
O7           C24   1.298       .  A
O8          Zr16   2.478       .  S
O8           C23   1.291       .  A
O9          Zr14   2.368       .  S
O9          Zr16   2.374       .  S
O10         Zr15   2.384       .  S
O10         Zr16   2.346       .  S
O10          H45   0.964       .  S
O11         Zr14   2.388       .  S
O11         Zr31   2.408       .  S
O11          H48   0.966       .  S
O12         Zr15   2.387       .  S
O12         Zr31   2.408       .  S
Zr13         O38   2.439       .  S
Zr13         O32   2.404       .  S
Zr13         O40   2.461       .  S
Zr13         O28   2.459       .  S
Zr13         O19   2.401       .  S
Zr13         O20   2.405       .  S
Zr13         O21   2.373       .  S
Zr13         O22   2.377       .  S
Zr14         O33   2.450       .  S
Zr14         O26   2.431       .  S
Zr14         O27   2.380       .  S
Zr14         O20   2.388       .  S
Zr14         O21   2.366       .  S
Zr15         O17   2.434       .  S
Zr15         O39   2.437       .  S
Zr15         O41   2.360       .  S
Zr15         O19   2.385       .  S
Zr15         O22   2.363       .  S
Zr16         O42   2.434       .  S
Zr16         O43   2.436       .  S
Zr16         O18   2.442       .  S
Zr16         O19   2.414       .  S
Zr16         O20   2.412       .  S
O17          H54   0.990       .  S
O18          H49   0.990       .  S
O18          H63   0.990       .  S
O20          H46   0.966       .  S
O21         Zr31   2.358       .  S
O22         Zr31   2.360       .  S
O22          H47   0.965       .  S
C23        C3294   1.474       .  S
C24        C3254   1.460       .  S
C25        C3274   1.500       .  S
O26          H62   0.986       .  S
O27          C29   1.272       .  A
O28          C29   1.287       .  A
C29        C3264   1.478       .  S
O30         Zr31   2.439       .  S
O30          H59   0.990       .  S
Zr31         O34   2.437       .  S
Zr31         O35   2.440       .  S
Zr31         O36   2.460       .  S
O32          C37   1.281       .  A
O33          H50   0.990       .  S
O33          H65   0.990       .  S
O34          H51   0.990       .  S
O35          H55   0.990       .  S
O35          H64   0.990       .  S
O36          C37   1.289       .  A
C37        C3284   1.478       .  S
O38          H57   0.989       .  S
O38          H61   0.990       .  S
O39          H53   0.990       .  S
O39          H60   0.989       .  S
O40          C44   1.292       .  A
O41          C44   1.270       .  A
O42          H52   0.990       .  S
O43          H56   0.990       .  S
C44        C3304   1.457       .  S
Zr67         O68   2.434       .  S
Zr67         O69   2.349       .  S
Zr67         O70   2.538       .  S
Zr67         O73   2.538       .  S
Zr67         O75   2.366       .  S
Zr67         O76   2.383       .  S
Zr67         O77   2.409       .  S
Zr67         O78   2.408       .  S
O68         H124   0.990       .  S
O68         H132   0.990       .  S
O69          C89   1.266       .  A
O70          C91   1.305       .  A
O71         Zr81   2.323       .  S
O71          C90   1.264       .  A
O72         Zr80   2.364       .  S
O72          C91   1.271       .  A
O73          C90   1.306       .  A
O74         Zr82   2.493       .  S
O74          C89   1.296       .  A
O75         Zr80   2.351       .  S
O75         Zr82   2.348       .  S
O76         Zr81   2.373       .  S
O76         Zr82   2.356       .  S
O76         H111   0.965       .  S
O77         Zr80   2.383       .  S
O77         Zr97   2.412       .  S
O77         H114   0.966       .  S
O78         Zr81   2.383       .  S
O78         Zr97   2.408       .  S
Zr79        O104   2.433       .  S
Zr79         O98   2.383       .  S
Zr79        O106   2.569       .  S
Zr79         O94   2.545       .  S
Zr79         O85   2.411       .  S
Zr79         O86   2.423       .  S
Zr79         O87   2.379       .  S
Zr79         O88   2.377       .  S
Zr80         O99   2.443       .  S
Zr80         O92   2.435       .  S
Zr80         O93   2.322       .  S
Zr80         O86   2.398       .  S
Zr80         O87   2.363       .  S
Zr81         O83   2.435       .  S
Zr81        O105   2.438       .  S
Zr81        O107   2.343       .  S
Zr81         O85   2.378       .  S
Zr81         O88   2.366       .  S
Zr82        O108   2.435       .  S
Zr82        O109   2.435       .  S
Zr82         O84   2.435       .  S
Zr82         O85   2.420       .  S
Zr82         O86   2.417       .  S
O83         H120   0.991       .  S
O84         H115   0.990       .  S
O84         H129   0.990       .  S
O86         H112   0.966       .  S
O87         Zr97   2.347       .  S
O88         Zr97   2.372       .  S
O88         H113   0.965       .  S
C89        C3194   1.489       .  S
C90        C3247   1.485       .  S
C91        C3234   1.521       .  S
O92         H128   0.989       .  S
O93          C95   1.265       .  A
O94          C95   1.308       .  A
C95        C3224   1.489       .  S
O96         Zr97   2.441       .  S
O96         H125   0.990       .  S
Zr97        O100   2.437       .  S
Zr97        O101   2.440       .  S
Zr97        O102   2.470       .  S
O98         C103   1.276       .  A
O99         H116   0.990       .  S
O99         H131   0.990       .  S
O100        H117   0.990       .  S
O101        H121   0.990       .  S
O101        H130   0.989       .  S
O102        C103   1.294       .  A
C103       C3204   1.478       .  S
O104        H123   0.990       .  S
O104        H127   0.990       .  S
O105        H119   0.991       .  S
O105        H126   0.990       .  S
O106        C110   1.312       .  A
O107        C110   1.266       .  A
O108        H118   0.990       .  S
O109        H122   0.990       .  S
C110       C3214   1.512       .  S
C133       C3174   1.498   1_556  S
C133        C134   1.414       .  A
C133        C138   1.411       .  A
C134        C135   1.411       .  A
C134        H139   1.084       .  S
C135       C3184   1.496       .  S
C135        C136   1.398       .  A
C136        C137   1.407       .  A
C136        H140   1.085       .  S
C137       C3164   1.490       .  S
C137        C138   1.408       .  A
C138        H141   1.084       .  S
C142       C3144   1.519   1_556  S
C142        C143   1.411       .  A
C142        C147   1.412       .  A
C143        C144   1.410       .  A
C143        H148   1.072       .  S
C144       C3154   1.492   1_655  S
C144        C145   1.397       .  A
C145        C146   1.395   1_565  A
C145        H149   1.085   1_565  S
C146       C3134   1.482       .  S
C146        C147   1.400   1_545  A
C147        H150   1.081   1_565  S
C151       C3114   1.506   1_655  S
C151        C152   1.400       .  A
C151        C156   1.426       .  A
C152        C153   1.397       .  A
C152        H157   1.085       .  S
C153       C3124   1.486       .  S
C153        C154   1.403       .  A
C154        C155   1.412       .  A
C154        H158   1.084       .  S
C155       C3104   1.524       .  S
C155        C156   1.429       .  A
C156        H159   1.083       .  S
C160       C3087   1.624       .  S
C160       C3094   1.591       .  S
C160       C3117   1.634       .  S
C160       C3157   1.611       .  S
C161       C3064   1.611       .  S
C161       C3074   1.606       .  S
C161       C3147   1.609       .  S
C161       C3177   1.627       .  S
C162       C3054   1.519   1_565  S
C162        C163   1.408       .  A
C162        C167   1.400       .  A
C163        C164   1.413       .  A
C163        H168   1.066       .  S
C164       C3044   1.532       .  S
C164        C165   1.424       .  A
C165        C166   1.421       .  A
C165        H169   1.082       .  S
C166       C3034   1.503       .  S
C166        C167   1.392       .  A
C167        H170   1.079       .  S
C171       C3014   1.596       .  S
C171       C3024   1.627       .  S
C171       C3047   1.650       .  S
C171       C3127   1.602       .  S
C172       C2994   1.618       .  S
C172       C3004   1.605       .  S
C172       C3107   1.609       .  S
C172       C3187   1.624       .  S
C173       C2974   1.608       .  S
C173       C2984   1.579       .  S
C173       C3037   1.571       .  S
C173       C3167   1.624       .  S
C174       C2954   1.590       .  S
C174       C2964   1.598       .  S
C174       C3057   1.599       .  S
C174       C3137   1.601       .  S
Zr175       O176   2.434       .  S
Zr175       O177   2.398       .  S
Zr175       O178   2.483       .  S
Zr175       O181   2.512       .  S
Zr175       O183   2.382       .  S
Zr175       O184   2.373       .  S
Zr175       O185   2.424       .  S
Zr175       O186   2.413       .  S
O176        H232   0.990       .  S
O176        H240   0.990       .  S
O177        C197   1.275       .  A
O178        C199   1.293       .  A
O179       Zr189   2.362       .  S
O179        C198   1.270       .  A
O180       Zr188   2.391       .  S
O180        C199   1.269       .  A
O181        C198   1.300       .  A
O182       Zr190   2.483       .  S
O182        C197   1.293       .  A
O183       Zr188   2.377       .  S
O183       Zr190   2.362       .  S
O184       Zr189   2.362       .  S
O184       Zr190   2.339       .  S
O184        H219   0.963       .  S
O185       Zr188   2.388       .  S
O185       Zr205   2.402       .  S
O185        H222   0.966       .  S
O186       Zr189   2.384       .  S
O186       Zr205   2.433       .  S
Zr187       O212   2.433       .  S
Zr187       O206   2.389       .  S
Zr187       O214   2.480       .  S
Zr187       O202   2.481       .  S
Zr187       O193   2.405       .  S
Zr187       O194   2.411       .  S
Zr187       O195   2.372       .  S
Zr187       O196   2.382       .  S
Zr188       O207   2.448       .  S
Zr188       O200   2.436       .  S
Zr188       O201   2.369       .  S
Zr188       O194   2.384       .  S
Zr188       O195   2.362       .  S
Zr189       O191   2.439       .  S
Zr189       O213   2.443       .  S
Zr189       O215   2.371       .  S
Zr189       O193   2.385       .  S
Zr189       O196   2.370       .  S
Zr190       O216   2.437       .  S
Zr190       O217   2.437       .  S
Zr190       O192   2.438       .  S
Zr190       O193   2.414       .  S
Zr190       O194   2.408       .  S
O191        H228   0.990       .  S
O192        H223   0.990       .  S
O192        H237   0.990       .  S
O194        H220   0.966       .  S
O195       Zr205   2.345       .  S
O196       Zr205   2.345       .  S
O196        H221   0.963       .  S
C197       C2934   1.518       .  S
C198       C2924   1.480       .  S
C199       C2917   1.494       .  S
O200        H236   0.989       .  S
O201        C203   1.274       .  A
O202        C203   1.294       .  A
C203       C2904   1.471       .  S
O204       Zr205   2.442       .  S
O204        H233   0.990       .  S
Zr205       O208   2.438       .  S
Zr205       O209   2.444       .  S
Zr205       O210   2.503       .  S
O206        C211   1.274       .  A
O207        H224   0.988       .  S
O207        H239   0.990       .  S
O208        H225   0.990       .  S
O209        H229   0.989       .  S
O209        H238   0.989       .  S
O210        C211   1.300       .  A
C211       C2944   1.511       .  S
O212        H231   0.990       .  S
O212        H235   0.990       .  S
O213        H227   0.990       .  S
O213        H234   0.990       .  S
O214        C218   1.292       .  A
O215        C218   1.267       .  A
O216        H226   0.990       .  S
O217        H230   0.990       .  S
C218       C2894   1.494       .  S
Zr241       O242   2.434       .  S
Zr241       O243   2.379       .  S
Zr241       O244   2.498       .  S
Zr241       O247   2.502       .  S
Zr241       O249   2.378       .  S
Zr241       O250   2.373       .  S
Zr241       O251   2.417       .  S
Zr241       O252   2.410       .  S
O242        H298   0.990       .  S
O242        H306   0.990       .  S
O243        C263   1.274       .  A
O244        C265   1.296       .  A
O245       Zr255   2.336       .  S
O245        C264   1.264       .  A
O246       Zr254   2.377       .  S
O246        C265   1.275       .  A
O247        C264   1.299       .  A
O248       Zr256   2.461       .  S
O248        C263   1.290       .  A
O249       Zr254   2.363       .  S
O249       Zr256   2.359       .  S
O250       Zr255   2.366       .  S
O250       Zr256   2.357       .  S
O250        H285   0.965       .  S
O251       Zr254   2.391       .  S
O251       Zr271   2.418       .  S
O251        H288   0.966       .  S
O252       Zr255   2.382       .  S
O252       Zr271   2.419       .  S
Zr253       O278   2.434       .  S
Zr253       O272   2.365       .  S
Zr253       O280   2.510       .  S
Zr253       O268   2.466       .  S
Zr253       O259   2.395       .  S
Zr253       O260   2.411       .  S
Zr253       O261   2.374       .  S
Zr253       O262   2.372       .  S
Zr254       O273   2.435       .  S
Zr254       O266   2.437       .  S
Zr254       O267   2.359       .  S
Zr254       O260   2.390       .  S
Zr254       O261   2.366       .  S
Zr255       O257   2.435       .  S
Zr255       O279   2.435       .  S
Zr255       O281   2.347       .  S
Zr255       O259   2.384       .  S
Zr255       O262   2.363       .  S
Zr256       O282   2.435       .  S
Zr256       O283   2.436       .  S
Zr256       O258   2.437       .  S
Zr256       O259   2.412       .  S
Zr256       O260   2.401       .  S
O257        H294   0.991       .  S
O258        H289   0.990       .  S
O258        H303   0.990       .  S
O260        H286   0.966       .  S
O261       Zr271   2.349       .  S
O262       Zr271   2.354       .  S
O262        H287   0.965       .  S
C263       C2857   1.481       .  S
C264       C2884   1.464       .  S
C265       C2844   1.485       .  S
O266        H302   0.990       .  S
O267        C269   1.270       .  A
O268        C269   1.294       .  A
C269       C2877   1.462       .  S
O270       Zr271   2.441       .  S
O270        H299   0.990       .  S
Zr271       O274   2.436       .  S
Zr271       O275   2.440       .  S
Zr271       O276   2.494       .  S
O272        C277   1.270       .  A
O273        H290   0.990       .  S
O273        H305   0.988       .  S
O274        H291   0.989       .  S
O275        H295   0.990       .  S
O275        H304   0.989       .  S
O276        C277   1.298       .  A
C277       C2834   1.492       .  S
O278        H297   0.990       .  S
O278        H301   0.990       .  S
O279        H293   0.990       .  S
O279        H300   0.990       .  S
O280        C284   1.299       .  A
O281        C284   1.269       .  A
O282        H292   0.990       .  S
O283        H296   0.990       .  S
C284       C2867   1.478       .  S
Zr307       O308   2.433       .  S
Zr307       O309   2.335       .  S
Zr307       O310   2.552       .  S
Zr307       O313   2.546       .  S
Zr307       O315   2.377       .  S
Zr307       O316   2.388       .  S
Zr307       O317   2.399       .  S
Zr307       O318   2.403       .  S
O308        H364   0.990       .  S
O308        H372   0.990       .  S
O309        C329   1.266       .  A
O310        C331   1.310       .  A
O311       Zr321   2.322       .  S
O311        C330   1.263       .  A
O312       Zr320   2.374       .  S
O312        C331   1.273       .  A
O313        C330   1.310       .  A
O314       Zr322   2.515       .  S
O314        C329   1.303       .  A
O315       Zr320   2.370       .  S
O315       Zr322   2.346       .  S
O316       Zr321   2.387       .  S
O316       Zr322   2.332       .  S
O316        H351   0.964       .  S
O317       Zr320   2.394       .  S
O317       Zr337   2.395       .  S
O317        H354   0.966       .  S
O318       Zr321   2.398       .  S
O318       Zr337   2.395       .  S
Zr319       O344   2.434       .  S
Zr319       O338   2.392       .  S
Zr319       O346   2.523       .  S
Zr319       O334   2.489       .  S
Zr319       O325   2.409       .  S
Zr319       O326   2.425       .  S
Zr319       O327   2.385       .  S
Zr319       O328   2.372       .  S
Zr320       O339   2.438       .  S
Zr320       O332   2.435       .  S
Zr320       O333   2.369       .  S
Zr320       O326   2.389       .  S
Zr320       O327   2.367       .  S
Zr321       O323   2.435       .  S
Zr321       O345   2.438       .  S
Zr321       O347   2.384       .  S
Zr321       O325   2.375       .  S
Zr321       O328   2.358       .  S
Zr322       O348   2.436       .  S
Zr322       O349   2.435       .  S
Zr322       O324   2.434       .  S
Zr322       O325   2.429       .  S
Zr322       O326   2.419       .  S
O323        H360   0.990       .  S
O324        H355   0.990       .  S
O324        H369   0.989       .  S
O326        H352   0.966       .  S
O327       Zr337   2.372       .  S
O328       Zr337   2.375       .  S
O328        H353   0.965       .  S
C329       C2784   1.470       .  S
C330       C2807   1.477       .  S
C331       C2797   1.515       .  S
O332        H368   0.990       .  S
O333        C335   1.274       .  A
O334        C335   1.295       .  A
C335       C2824   1.494       .  S
O336       Zr337   2.439       .  S
O336        H365   0.990       .  S
Zr337       O340   2.436       .  S
Zr337       O341   2.440       .  S
Zr337       O342   2.426       .  S
O338        C343   1.280       .  A
O339        H356   0.990       .  S
O339        H371   0.990       .  S
O340        H357   0.990       .  S
O341        H361   0.990       .  S
O341        H370   0.990       .  S
O342        C343   1.282       .  A
C343       C2987   1.461       .  S
O344        H363   0.990       .  S
O344        H367   0.990       .  S
O345        H359   0.991       .  S
O345        H366   0.989       .  S
O346        C350   1.303       .  A
O347        C350   1.274       .  A
O348        H358   0.990       .  S
O349        H362   0.990       .  S
C350       C2814   1.513       .  S
Zr373       O374   2.436   1_554  S
Zr373       O375   2.408       .  S
Zr373       O376   2.462   1_554  S
Zr373       O379   2.457       .  S
Zr373       O381   2.374   1_554  S
Zr373       O382   2.367       .  S
Zr373       O383   2.408   1_554  S
Zr373       O384   2.389   1_554  S
O374        H430   0.990       .  S
O374        H438   0.990       .  S
O375        C395   1.282       .  A
O376        C397   1.286       .  A
O377       Zr387   2.378       .  S
O377        C396   1.275       .  A
O378       Zr386   2.376       .  S
O378        C397   1.265       .  A
O379        C396   1.291       .  A
O380       Zr388   2.423       .  S
O380        C395   1.282       .  A
O381       Zr386   2.353       .  S
O381       Zr388   2.351   1_556  S
O382       Zr387   2.356       .  S
O382       Zr388   2.381       .  S
O382        H417   0.964       .  S
O383       Zr386   2.392       .  S
O383       Zr403   2.411       .  S
O383        H420   0.965       .  S
O384       Zr387   2.381   1_556  S
O384       Zr403   2.409       .  S
Zr385       O410   2.433       .  S
Zr385       O404   2.351       .  S
Zr385       O412   2.510   1_556  S
Zr385       O400   2.531       .  S
Zr385       O391   2.401   1_556  S
Zr385       O392   2.402       .  S
Zr385       O393   2.369       .  S
Zr385       O394   2.392       .  S
Zr386       O405   2.444       .  S
Zr386       O398   2.432       .  S
Zr386       O399   2.335       .  S
Zr386       O392   2.397       .  S
Zr386       O393   2.373       .  S
Zr387       O389   2.446       .  S
Zr387       O411   2.456       .  S
Zr387       O413   2.382       .  S
Zr387       O391   2.392       .  S
Zr387       O394   2.387   1_554  S
Zr388       O414   2.434       .  S
Zr388       O415   2.435       .  S
Zr388       O390   2.437       .  S
Zr388       O391   2.385       .  S
Zr388       O392   2.403   1_554  S
O389        H426   0.989       .  S
O390        H421   0.990       .  S
O390        H435   0.990       .  S
O392        H418   0.966       .  S
O393       Zr403   2.344       .  S
O394       Zr403   2.358       .  S
O394        H419   0.964       .  S
C395       C2734   1.461       .  S
C396       C2774   1.470       .  S
C397       C3097   1.490       .  S
O398        H434   0.990       .  S
O399        C401   1.265       .  A
O400        C401   1.306       .  A
C401       C2747   1.486       .  S
O402       Zr403   2.440       .  S
O402        H431   0.990       .  S
Zr403       O406   2.437       .  S
Zr403       O407   2.438       .  S
Zr403       O408   2.481       .  S
O404        C409   1.270       .  A
O405        H422   0.988       .  S
O405        H437   0.989       .  S
O406        H423   0.990       .  S
O407        H427   0.990       .  S
O407        H436   0.988       .  S
O408        C409   1.296       .  A
C409       C2754   1.470       .  S
O410        H429   0.990   1_556  S
O410        H433   0.990       .  S
O411        H425   0.989       .  S
O411        H432   0.989       .  S
O412        C416   1.296       .  A
O413        C416   1.262       .  A
O414        H424   0.990       .  S
O415        H428   0.990       .  S
C416       C2767   1.507       .  S
Zr439       O440   2.434       .  S
Zr439       O441   2.402   1_655  S
Zr439       O442   2.461       .  S
Zr439       O445   2.473   1_655  S
Zr439       O447   2.374       .  S
Zr439       O448   2.373   1_655  S
Zr439       O449   2.419       .  S
Zr439       O450   2.408       .  S
O440        H496   0.990       .  S
O440        H504   0.990       .  S
O441        C461   1.279       .  A
O442        C463   1.289       .  A
O443       Zr453   2.370       .  S
O443        C462   1.271       .  A
O444       Zr452   2.387       .  S
O444        C463   1.272       .  A
O445        C462   1.295       .  A
O446       Zr454   2.495       .  S
O446        C461   1.297       .  A
O447       Zr452   2.375       .  S
O447       Zr454   2.351   1_655  S
O448       Zr453   2.379       .  S
O448       Zr454   2.343       .  S
O448        H483   0.963       .  S
O449       Zr452   2.401       .  S
O449       Zr469   2.417       .  S
O449        H486   0.966       .  S
O450       Zr453   2.386   1_655  S
O450       Zr469   2.419       .  S
Zr451       O476   2.434   1_655  S
Zr451       O470   2.365       .  S
Zr451       O478   2.483   1_655  S
Zr451       O466   2.477       .  S
Zr451       O457   2.398   1_655  S
Zr451       O458   2.405       .  S
Zr451       O459   2.362       .  S
Zr451       O460   2.374       .  S
Zr452       O471   2.440       .  S
Zr452       O464   2.435   1_556  S
Zr452       O465   2.398   1_556  S
Zr452       O458   2.391   1_556  S
Zr452       O459   2.363   1_556  S
Zr453       O455   2.435       .  S
Zr453       O477   2.437   1_556  S
Zr453       O479   2.360   1_556  S
Zr453       O457   2.398   1_556  S
Zr453       O460   2.374   1_456  S
Zr454       O480   2.435       .  S
Zr454       O481   2.435   1_556  S
Zr454       O456   2.435       .  S
Zr454       O457   2.416   1_556  S
Zr454       O458   2.416   1_456  S
O455        H492   0.990       .  S
O456        H487   0.990       .  S
O456        H501   0.990       .  S
O458        H484   0.966       .  S
O459       Zr469   2.349   1_554  S
O460       Zr469   2.347   1_554  S
O460        H485   0.964       .  S
C461       C2694   1.507       .  S
C462       C2714   1.465       .  S
C463       C3007   1.481       .  S
O464        H500   0.990       .  S
O465        C467   1.279       .  A
O466        C467   1.294       .  A
C467       C2704   1.484       .  S
O468       Zr469   2.440       .  S
O468        H497   0.990       .  S
Zr469       O472   2.434       .  S
Zr469       O473   2.440       .  S
Zr469       O474   2.500   1_556  S
O470        C475   1.272       .  A
O471        H488   0.990       .  S
O471        H503   0.989       .  S
O472        H489   0.990       .  S
O473        H493   0.990       .  S
O473        H502   0.990       .  S
O474        C475   1.298       .  A
C475       C2724   1.492       .  S
O476        H495   0.990       .  S
O476        H499   0.990       .  S
O477        H491   0.990   1_554  S
O477        H498   0.989       .  S
O478        C482   1.297       .  A
O479        C482   1.269       .  A
O480        H490   0.990       .  S
O481        H494   0.990       .  S
C482       C2684   1.459       .  S
Zr505       O506   2.433   1_565  S
Zr505       O507   2.412       .  S
Zr505       O508   2.581   1_565  S
Zr505       O511   2.592       .  S
Zr505       O513   2.376       .  S
Zr505       O514   2.390       .  S
Zr505       O515   2.429   1_565  S
Zr505       O516   2.421   1_565  S
O506        H562   0.990       .  S
O506        H570   0.990       .  S
O507        C527   1.282       .  A
O508        C529   1.313       .  A
O509       Zr519   2.380       .  S
O509        C528   1.265       .  A
O510       Zr518   2.352       .  S
O510        C529   1.262       .  A
O511        C528   1.316       .  A
O512       Zr520   2.488       .  S
O512        C527   1.294       .  A
O513       Zr518   2.376   1_565  S
O513       Zr520   2.356       .  S
O514       Zr519   2.385       .  S
O514       Zr520   2.360       .  S
O514        H549   0.965       .  S
O515       Zr518   2.400       .  S
O515       Zr535   2.421       .  S
O515        H552   0.964       .  S
O516       Zr519   2.384   1_545  S
O516       Zr535   2.419       .  S
Zr517       O542   2.433   1_545  S
Zr517       O536   2.385       .  S
Zr517       O544   2.512   1_545  S
Zr517       O532   2.532       .  S
Zr517       O523   2.417   1_545  S
Zr517       O524   2.406       .  S
Zr517       O525   2.367       .  S
Zr517       O526   2.384       .  S
Zr518       O537   2.445       .  S
Zr518       O530   2.434       .  S
Zr518       O531   2.357       .  S
Zr518       O524   2.380       .  S
Zr518       O525   2.364       .  S
Zr519       O521   2.442       .  S
Zr519       O543   2.439       .  S
Zr519       O545   2.383       .  S
Zr519       O523   2.393       .  S
Zr519       O526   2.367   1_565  S
Zr520       O546   2.435       .  S
Zr520       O547   2.435       .  S
Zr520       O522   2.436       .  S
Zr520       O523   2.423       .  S
Zr520       O524   2.418   1_565  S
O521        H558   0.989       .  S
O522        H553   0.990       .  S
O522        H567   0.990       .  S
O524        H550   0.966       .  S
O525       Zr535   2.363       .  S
O526       Zr535   2.342       .  S
O526        H551   0.963       .  S
C527       C2664   1.492       .  S
C528       C2644   1.553       .  S
C529       C2657   1.529       .  S
O530        H566   0.989       .  S
O531        C533   1.270       .  A
O532        C533   1.305       .  A
C533       C2677   1.497       .  S
O534       Zr535   2.441       .  S
O534        H563   0.991       .  S
Zr535       O538   2.437       .  S
Zr535       O539   2.438       .  S
Zr535       O540   2.501       .  S
O536        C541   1.275       .  A
O537        H554   0.988       .  S
O537        H569   0.989       .  S
O538        H555   0.990       .  S
O539        H559   0.990       .  S
O539        H568   0.988       .  S
O540        C541   1.299       .  A
C541       C2637   1.500       .  S
O542        H561   0.990       .  S
O542        H565   0.990       .  S
O543        H557   0.989       .  S
O543        H564   0.990       .  S
O544        C548   1.301       .  A
O545        C548   1.274       .  A
O546        H556   0.990       .  S
O547        H560   0.990       .  S
C548       C3084   1.491       .  S
Zr571       O572   2.434       .  S
Zr571       O573   2.403       .  S
Zr571       O574   2.465       .  S
Zr571       O577   2.467       .  S
Zr571       O579   2.374       .  S
Zr571       O580   2.377       .  S
Zr571       O581   2.409       .  S
Zr571       O582   2.408       .  S
O572        H628   0.990       .  S
O572        H636   0.990       .  S
O573        C593   1.279       .  A
O574        C595   1.292       .  A
O575       Zr585   2.381       .  S
O575        C594   1.274       .  A
O576       Zr584   2.385       .  S
O576        C595   1.273       .  A
O577        C594   1.291       .  A
O578       Zr586   2.502       .  S
O578        C593   1.298       .  A
O579       Zr584   2.373       .  S
O579       Zr586   2.360       .  S
O580       Zr585   2.374       .  S
O580       Zr586   2.341       .  S
O580        H615   0.963       .  S
O581       Zr584   2.392       .  S
O581       Zr601   2.411       .  S
O581        H618   0.966       .  S
O582       Zr585   2.389       .  S
O582       Zr601   2.418       .  S
Zr583       O608   2.435       .  S
Zr583       O602   2.424       .  S
Zr583       O610   2.496       .  S
Zr583       O598   2.500       .  S
Zr583       O589   2.420       .  S
Zr583       O590   2.420       .  S
Zr583       O591   2.378       .  S
Zr583       O592   2.377       .  S
Zr584       O603   2.439       .  S
Zr584       O596   2.433       .  S
Zr584       O597   2.376       .  S
Zr584       O590   2.386       .  S
Zr584       O591   2.387       .  S
Zr585       O587   2.434       .  S
Zr585       O609   2.437       .  S
Zr585       O611   2.388       .  S
Zr585       O589   2.391       .  S
Zr585       O592   2.370       .  S
Zr586       O612   2.436       .  S
Zr586       O613   2.435       .  S
Zr586       O588   2.436       .  S
Zr586       O589   2.425       .  S
Zr586       O590   2.412       .  S
O587        H624   0.990       .  S
O588        H619   0.990       .  S
O588        H633   0.990       .  S
O590        H616   0.966       .  S
O591       Zr601   2.372       .  S
O592       Zr601   2.355       .  S
O592        H617   0.964       .  S
C593       C3027   1.509       .  S
C594       C2604   1.462       .  S
C595       C2624   1.470       .  S
O596        H632   0.990       .  S
O597        C599   1.275       .  A
O598        C599   1.299       .  A
C599       C2584   1.496       .  S
O600       Zr601   2.439       .  S
O600        H629   0.990       .  S
Zr601       O604   2.437       .  S
Zr601       O605   2.439       .  S
Zr601       O606   2.477       .  S
O602        C607   1.285       .  A
O603        H620   0.990       .  S
O603        H635   0.990       .  S
O604        H621   0.990       .  S
O605        H625   0.990       .  S
O605        H634   0.990       .  S
O606        C607   1.291       .  A
C607       C2617   1.493       .  S
O608        H627   0.990       .  S
O608        H631   0.990       .  S
O609        H623   0.990       .  S
O609        H630   0.990       .  S
O610        C614   1.297       .  A
O611        C614   1.276       .  A
O612        H622   0.990       .  S
O613        H626   0.990       .  S
C614       C2594   1.510       .  S
Zr637       O638   2.434   1_655  S
Zr637       O639   2.339       .  S
Zr637       O640   2.476   1_655  S
Zr637       O643   2.485       .  S
Zr637       O645   2.381       .  S
Zr637       O646   2.384       .  S
Zr637       O647   2.407   1_655  S
Zr637       O648   2.395       .  S
O638        H694   0.990       .  S
O638        H702   0.990       .  S
O639        C659   1.266       .  A
O640        C661   1.291       .  A
O641       Zr651   2.373       .  S
O641        C660   1.276       .  A
O642       Zr650   2.398       .  S
O642        C661   1.271       .  A
O643        C660   1.295       .  A
O644       Zr652   2.463       .  S
O644        C659   1.292       .  A
O645       Zr650   2.373   1_655  S
O645       Zr652   2.353       .  S
O646       Zr651   2.365       .  S
O646       Zr652   2.337       .  S
O646        H681   0.963       .  S
O647       Zr650   2.399       .  S
O647       Zr667   2.399       .  S
O647        H684   0.965       .  S
O648       Zr651   2.387       .  S
O648       Zr667   2.405   1_655  S
Zr649       O674   2.433       .  S
Zr649       O668   2.361   1_655  S
Zr649       O676   2.483       .  S
Zr649       O664   2.473   1_655  S
Zr649       O655   2.397       .  S
Zr649       O656   2.408       .  S
Zr649       O657   2.384   1_655  S
Zr649       O658   2.383       .  S
Zr650       O669   2.449       .  S
Zr650       O662   2.442       .  S
Zr650       O663   2.368       .  S
Zr650       O656   2.416   1_455  S
Zr650       O657   2.370       .  S
Zr651       O653   2.434       .  S
Zr651       O675   2.433       .  S
Zr651       O677   2.359       .  S
Zr651       O655   2.390       .  S
Zr651       O658   2.357       .  S
Zr652       O678   2.434       .  S
Zr652       O679   2.436       .  S
Zr652       O654   2.437       .  S
Zr652       O655   2.412       .  S
Zr652       O656   2.379       .  S
O653        H690   0.990       .  S
O654        H685   0.990       .  S
O654        H699   0.990       .  S
O656        H682   0.966       .  S
O657       Zr667   2.369       .  S
O658       Zr667   2.355   1_655  S
O658        H683   0.964       .  S
C659       C2547   1.467       .  S
C660       C2557   1.487       .  S
C661       C2574   1.469       .  S
O662        H698   0.990       .  S
O663        C665   1.263       .  A
O664        C665   1.288       .  A
C665       C2564   1.479       .  S
O666       Zr667   2.441       .  S
O666        H695   0.990       .  S
Zr667       O670   2.437       .  S
Zr667       O671   2.438       .  S
Zr667       O672   2.454       .  S
O668        C673   1.272       .  A
O669        H686   0.988       .  S
O669        H701   0.987       .  S
O670        H687   0.990       .  S
O671        H691   0.990       .  S
O671        H700   0.989       .  S
O672        C673   1.290       .  A
C673       C2534   1.463       .  S
O674        H693   0.990       .  S
O674        H697   0.990       .  S
O675        H689   0.989       .  S
O675        H696   0.989       .  S
O676        C680   1.295       .  A
O677        C680   1.272       .  A
O678        H688   0.990       .  S
O679        H692   0.990       .  S
C680       C3077   1.478       .  S
Zr703       O704   2.434   1_545  S
Zr703       O705   2.368       .  S
Zr703       O706   2.491       .  S
Zr703       O709   2.528   1_545  S
Zr703       O711   2.396       .  S
Zr703       O712   2.377       .  S
Zr703       O713   2.414       .  S
Zr703       O714   2.397   1_545  S
O704        H760   0.990   1_565  S
O704        H768   0.990       .  S
O705        C725   1.273       .  A
O706        C727   1.296       .  A
O707       Zr717   2.371       .  S
O707        C726   1.273       .  A
O708       Zr716   2.340       .  S
O708        C727   1.264       .  A
O709        C726   1.303       .  A
O710       Zr718   2.469       .  S
O710        C725   1.293       .  A
O711       Zr716   2.372       .  S
O711       Zr718   2.360       .  S
O712       Zr717   2.364   1_545  S
O712       Zr718   2.361       .  S
O712        H747   0.965       .  S
O713       Zr716   2.405       .  S
O713       Zr733   2.397   1_545  S
O713        H750   0.966       .  S
O714       Zr717   2.382       .  S
O714       Zr733   2.404       .  S
Zr715       O740   2.434       .  S
Zr715       O734   2.387   1_545  S
Zr715       O742   2.483   1_545  S
Zr715       O730   2.498       .  S
Zr715       O721   2.409       .  S
Zr715       O722   2.415       .  S
Zr715       O723   2.367       .  S
Zr715       O724   2.380   1_545  S
Zr716       O735   2.442       .  S
Zr716       O728   2.436   1_556  S
Zr716       O729   2.374   1_556  S
Zr716       O722   2.374   1_556  S
Zr716       O723   2.355   1_556  S
Zr717       O719   2.433       .  S
Zr717       O741   2.435   1_556  S
Zr717       O743   2.359   1_556  S
Zr717       O721   2.386   1_566  S
Zr717       O724   2.368   1_556  S
Zr718       O744   2.434   1_556  S
Zr718       O745   2.436   1_556  S
Zr718       O720   2.436       .  S
Zr718       O721   2.417   1_556  S
Zr718       O722   2.412   1_556  S
O719        H756   0.989       .  S
O720        H751   0.990       .  S
O720        H765   0.990       .  S
O722        H748   0.966       .  S
O723       Zr733   2.353   1_544  S
O724       Zr733   2.360   1_554  S
O724        H749   0.965       .  S
C725       C2497   1.473       .  S
C726       C2977   1.511       .  S
C727       C2524   1.465       .  S
O728        H764   0.990   1_554  S
O729        C731   1.274       .  A
O730        C731   1.296       .  A
C731       C2484   1.493       .  S
O732       Zr733   2.441       .  S
O732        H761   0.990       .  S
Zr733       O736   2.436       .  S
Zr733       O737   2.441       .  S
Zr733       O738   2.451   1_556  S
O734        C739   1.276       .  A
O735        H752   0.990       .  S
O735        H767   0.989       .  S
O736        H753   0.989       .  S
O737        H757   0.990   1_556  S
O737        H766   0.990       .  S
O738        C739   1.288       .  A
C739       C2517   1.488       .  S
O740        H759   0.990       .  S
O740        H763   0.990       .  S
O741        H755   0.989   1_554  S
O741        H762   0.988   1_554  S
O742        C746   1.294       .  A
O743        C746   1.268       .  A
O744        H754   0.990   1_554  S
O745        H758   0.990       .  S
C746       C2504   1.496       .  S
C769       C2464   1.462       .  S
C769        C770   1.388       .  A
C769        C774   1.386       .  A
C770        C771   1.388       .  A
C770        H775   1.083       .  S
C771       C2474   1.469   1_565  S
C771        C772   1.409       .  A
C772        C773   1.412       .  A
C772        H776   1.073   1_565  S
C773       C2457   1.515       .  S
C773        C774   1.407       .  A
C774        H777   1.072       .  S
C778       C2447   1.498       .  S
C778        C779   1.406       .  A
C778        C783   1.412       .  A
C779        C780   1.404       .  A
C779        H784   1.084       .  S
C780       C2434   1.490       .  S
C780        C781   1.402       .  A
C781        C782   1.403       .  A
C781        H785   1.084       .  S
C782       C2424   1.505       .  S
C782        C783   1.409       .  A
C783        H786   1.082       .  S
C787       C2414   1.609       .  S
C787       C2437   1.613       .  S
C787       C2914   1.592       .  S
C787       C3277   1.607       .  S
C788       C2404   1.554   1_565  S
C788        C789   1.417       .  A
C788        C793   1.440       .  A
C789        C790   1.408       .  A
C789        H794   1.082       .  S
C790       C2394   1.503       .  S
C790        C791   1.404       .  A
C791        C792   1.409       .  A
C791        H795   1.084       .  S
C792       C2384   1.529       .  S
C792        C793   1.438       .  A
C793        H796   1.082       .  S
C797       C2417   1.497       .  S
C797        C798   1.406       .  A
C797        C802   1.408       .  A
C798        C799   1.412       .  A
C798        H803   1.083       .  S
C799       C2367   1.500       .  S
C799        C800   1.403       .  A
C800        C801   1.404       .  A
C800        H804   1.083       .  S
C801       C2377   1.480       .  S
C801        C802   1.401       .  A
C802        H805   1.084       .  S
C806       C2364   1.594       .  S
C806       C2387   1.642       .  S
C806       C2667   1.623       .  S
C806       C2794   1.619       .  S
C807       C2357   1.600       .  S
C807       C2374   1.606       .  S
C807       C2467   1.553       .  S
C807       C2567   1.597       .  S
C808       C2444   1.615       .  S
C808       C2454   1.601       .  S
C808       C2514   1.583       .  S
C808       C2777   1.607       .  S
C809       C2344   1.614       .  S
C809       C2397   1.642       .  S
C809       C2427   1.623       .  S
C809       C2597   1.612       .  S
C810       C2407   1.652       .  S
C810       C2477   1.591       .  S
C810       C2874   1.592       .  S
C810       C3244   1.606       .  S
Zr811       O812   2.433   1_545  S
Zr811       O813   2.366       .  S
Zr811       O814   2.540   1_545  S
Zr811       O817   2.558       .  S
Zr811       O819   2.368       .  S
Zr811       O820   2.381       .  S
Zr811       O821   2.423   1_545  S
Zr811       O822   2.410   1_545  S
O812        H868   0.990       .  S
O812        H876   0.990       .  S
O813        C833   1.271       .  A
O814        C835   1.307       .  A
O815       Zr825   2.367       .  S
O815        C834   1.264       .  A
O816       Zr824   2.385       .  S
O816        C835   1.271       .  A
O817        C834   1.308       .  A
O818       Zr826   2.499       .  S
O818        C833   1.297       .  A
O819       Zr824   2.364   1_545  S
O819       Zr826   2.339       .  S
O820       Zr825   2.366       .  S
O820       Zr826   2.363       .  S
O820        H855   0.964       .  S
O821       Zr824   2.396       .  S
O821       Zr841   2.416       .  S
O821        H858   0.966       .  S
O822       Zr825   2.384   1_565  S
O822       Zr841   2.414       .  S
Zr823       O848   2.434       .  S
Zr823       O842   2.373   1_545  S
Zr823       O850   2.521       .  S
Zr823       O838   2.521   1_545  S
Zr823       O829   2.402       .  S
Zr823       O830   2.420       .  S
Zr823       O831   2.362   1_545  S
Zr823       O832   2.373   1_545  S
Zr824       O843   2.442       .  S
Zr824       O836   2.436       .  S
Zr824       O837   2.375       .  S
Zr824       O830   2.395   1_565  S
Zr824       O831   2.359       .  S
Zr825       O827   2.438       .  S
Zr825       O849   2.446       .  S
Zr825       O851   2.343       .  S
Zr825       O829   2.370       .  S
Zr825       O832   2.357   1_545  S
Zr826       O852   2.437       .  S
Zr826       O853   2.435       .  S
Zr826       O828   2.435       .  S
Zr826       O829   2.422       .  S
Zr826       O830   2.422       .  S
O827        H864   0.991       .  S
O828        H859   0.990       .  S
O828        H873   0.990       .  S
O830        H856   0.966       .  S
O831       Zr841   2.337       .  S
O832       Zr841   2.361       .  S
O832        H857   0.964       .  S
C833       C2307   1.504       .  S
C834       C2334   1.519       .  S
C835       C3067   1.519       .  S
O836        H872   0.990       .  S
O837        C839   1.275       .  A
O838        C839   1.304       .  A
C839       C2324   1.489       .  S
O840       Zr841   2.440       .  S
O840        H869   0.990       .  S
Zr841       O844   2.437       .  S
Zr841       O845   2.443       .  S
Zr841       O846   2.489       .  S
O842        C847   1.270       .  A
O843        H860   0.990       .  S
O843        H875   0.989       .  S
O844        H861   0.990       .  S
O845        H865   0.990       .  S
O845        H874   0.989       .  S
O846        C847   1.293       .  A
C847       C2347   1.504       .  S
O848        H867   0.990       .  S
O848        H871   0.990       .  S
O849        H863   0.986       .  S
O849        H870   0.988       .  S
O850        C854   1.302       .  A
O851        C854   1.268       .  A
O852        H862   0.990       .  S
O853        H866   0.990       .  S
C854       C2317   1.483       .  S
Zr877       O878   2.435   1_554  S
Zr877       O879   2.382       .  S
Zr877       O880   2.462   1_554  S
Zr877       O883   2.488       .  S
Zr877       O885   2.385   1_554  S
Zr877       O886   2.377       .  S
Zr877       O887   2.410   1_554  S
Zr877       O888   2.399   1_554  S
O878        H934   0.990       .  S
O878        H942   0.990       .  S
O879        C899   1.275       .  A
O880        C901   1.290       .  A
O881       Zr891   2.379       .  S
O881        C900   1.275       .  A
O882       Zr890   2.361       .  S
O882        C901   1.272       .  A
O883        C900   1.295       .  A
O884       Zr892   2.437       .  S
O884        C899   1.286       .  A
O885       Zr890   2.372       .  S
O885       Zr892   2.361   1_556  S
O886       Zr891   2.365       .  S
O886       Zr892   2.369       .  S
O886        H921   0.966       .  S
O887       Zr890   2.397       .  S
O887       Zr907   2.399       .  S
O887        H924   0.966       .  S
O888       Zr891   2.381   1_556  S
O888       Zr907   2.413       .  S
Zr889       O914   2.435   1_556  S
Zr889       O908   2.360       .  S
Zr889       O916   2.460   1_556  S
Zr889       O904   2.488       .  S
Zr889       O895   2.398   1_556  S
Zr889       O896   2.398       .  S
Zr889       O897   2.366       .  S
Zr889       O898   2.388       .  S
Zr890       O909   2.434       .  S
Zr890       O902   2.437       .  S
Zr890       O903   2.387       .  S
Zr890       O896   2.384       .  S
Zr890       O897   2.353       .  S
Zr891       O893   2.434       .  S
Zr891       O915   2.437       .  S
Zr891       O917   2.359       .  S
Zr891       O895   2.392       .  S
Zr891       O898   2.366   1_554  S
Zr892       O918   2.434       .  S
Zr892       O919   2.436       .  S
Zr892       O894   2.436       .  S
Zr892       O895   2.398       .  S
Zr892       O896   2.399   1_554  S
O893        H930   0.990       .  S
O894        H925   0.990       .  S
O894        H939   0.990       .  S
O896        H922   0.966       .  S
O897       Zr907   2.349       .  S
O898       Zr907   2.361       .  S
O898        H923   0.965       .  S
C899       C2274   1.464       .  S
C900       C2297   1.488       .  S
C901       C2287   1.459       .  S
O902        H938   0.990       .  S
O903        C905   1.276       .  A
O904        C905   1.297       .  A
C905       C2264   1.481       .  S
O906       Zr907   2.439       .  S
O906        H935   0.990       .  S
Zr907       O910   2.437       .  S
Zr907       O911   2.440       .  S
Zr907       O912   2.459       .  S
O908        C913   1.267       .  A
O909        H926   0.990       .  S
O909        H941   0.989       .  S
O910        H927   0.989       .  S
O911        H931   0.990       .  S
O911        H940   0.990       .  S
O912        C913   1.288       .  A
C913       C2967   1.485       .  S
O914        H933   0.990       .  S
O914        H937   0.990       .  S
O915        H929   0.990       .  S
O915        H936   0.990       .  S
O916        C920   1.289       .  A
O917        C920   1.272       .  A
O918        H928   0.990       .  S
O919        H932   0.990       .  S
C920       C2254   1.454       .  S
C943       C2244   1.530   1_556  S
C943        C944   1.423       .  A
C943        C948   1.414       .  A
C944        C945   1.431       .  A
C944        H949   1.083       .  S
C945       C2234   1.518       .  S
C945        C946   1.399       .  A
C946        C947   1.396       .  A
C946        H950   1.083       .  S
C947       C2224   1.484       .  S
C947        C948   1.409       .  A
C948        H951   1.084       .  S
C952       C2217   1.491       .  S
C952        C953   1.414       .  A
C952        C957   1.400       .  A
C953        C954   1.412       .  A
C953        H958   1.083       .  S
C954       C2204   1.500       .  S
C954        C955   1.408       .  A
C955        C956   1.401       .  A
C955        H959   1.084       .  S
C956       C2194   1.482       .  S
C956        C957   1.396       .  A
C957        H960   1.084       .  S
C961       C2197   1.618       .  S
C961       C2237   1.626       .  S
C961       C2757   1.579       .  S
C961       C2804   1.633       .  S
C962       C2167   1.521       .  S
C962        C963   1.411       .  A
C962        C967   1.422       .  A
C963        C964   1.406       .  A
C963        H968   1.082       .  S
C964       C2184   1.492       .  S
C964        C965   1.400       .  A
C965        C966   1.399       .  A
C965        H969   1.084       .  S
C966       C2177   1.507       .  S
C966        C967   1.417       .  A
C967        H970   1.082       .  S
C971       C2154   1.637       .  S
C971       C2164   1.607       .  S
C971       C2227   1.602       .  S
C971       C2284   1.593       .  S
C972       C2187   1.603       .  S
C972       C2214   1.596       .  S
C972       C2854   1.588       .  S
C972       C3287   1.604       .  S
C973       C2147   1.608       .  S
C973       C2174   1.607       .  S
C973       C2527   1.608       .  S
C973       C2674   1.630       .  S
C974       C2124   1.579       .  S
C974       C2134   1.618       .  S
C974       C2207   1.597       .  S
C974       C2717   1.607       .  S
C975       C2137   1.513       .  S
C975        C976   1.416       .  A
C975        C980   1.412       .  A
C976        C977   1.413       .  A
C976        H981   1.079       .  S
C977       C2114   1.522       .  S
C977        C978   1.413       .  A
C978        C979   1.406       .  A
C978        H982   1.080       .  S
C979       C2144   1.513       .  S
C979        C980   1.410       .  A
C980        H983   1.083       .  S
C984       C2117   1.630       .  S
C984       C2247   1.648       .  S
C984       C2947   1.599       .  S
C984       C3237   1.609       .  S
C985       C2094   1.502       .  S
C985        C986   1.420       .  A
C985        C990   1.388       .  A
C986        C987   1.413       .  A
C986        H991   1.083       .  S
C987       C2104   1.500       .  S
C987        C988   1.409       .  A
C988        C989   1.406       .  A
C988        H992   1.084       .  S
C989       C2084   1.475       .  S
C989        C990   1.385       .  A
C990        H993   1.078       .  S
C994       C2054   1.520       .  S
C994        C995   1.408       .  A
C994        C999   1.417       .  A
C995        C996   1.409       .  A
C995       H1000   1.083       .  S
C996       C2074   1.496       .  S
C996        C997   1.397       .  A
C997        C998   1.405       .  A
C997       H1001   1.078       .  S
C998       C2067   1.521       .  S
C998        C999   1.420       .  A
C999       H1002   1.076       .  S
C1003      C2064   1.598       .  S
C1003      C2107   1.629       .  S
C1003      C2614   1.621       .  S
C1003      C3297   1.605       .  S
C1004      C2037   1.530   1_554  S
C1004      C1005   1.435       .  A
C1004      C1009   1.410       .  A
C1005      C1006   1.434       .  A
C1005      H1010   1.083       .  S
C1006      C2044   1.509       .  S
C1006      C1007   1.389       .  A
C1007      C1008   1.388       .  A
C1007      H1011   1.085       .  S
C1008      C2027   1.479       .  S
C1008      C1009   1.408       .  A
C1009      H1012   1.083       .  S
C1013      C2047   1.625       .  S
C1013      C2087   1.603       .  S
C1013      C2277   1.597       .  S
C1013      C3227   1.616       .  S
C1014      C2024   1.595       .  S
C1014      C2057   1.637       .  S
C1014      C2764   1.598       .  S
C1014      C2907   1.605       .  S
C1015      C1994   1.511       .  S
C1015      C1016   1.421       .  A
C1015      C1020   1.409       .  A
C1016      C1017   1.420       .  A
C1016      H1021   1.083       .  S
C1017      C2017   1.512       .  S
C1017      C1018   1.402       .  A
C1018      C1019   1.402       .  A
C1018      H1022   1.085       .  S
C1019      C2004   1.488       .  S
C1019      C1020   1.409       .  A
C1020      H1023   1.084       .  S
C1024      C1984   1.607       .  S
C1024      C2014   1.633       .  S
C1024      C2034   1.644       .  S
C1024      C2817   1.630       .  S
C1025      C1997   1.627       .  S
C1025      C2077   1.601       .  S
C1025      C2327   1.627       .  S
C1025      C2507   1.569       .  S
C1026      C2007   1.627       .  S
C1026      C2097   1.610       .  S
C1026      C2554   1.594       .  S
C1026      C2707   1.623       .  S
Zr1027     O1028   2.433       .  S
Zr1027     O1029   2.377       .  S
Zr1027     O1030   2.543       .  S
Zr1027     O1033   2.517       .  S
Zr1027     O1035   2.360       .  S
Zr1027     O1036   2.377       .  S
Zr1027     O1037   2.428       .  S
Zr1027     O1038   2.428       .  S
O1028      H1084   0.990       .  S
O1028      H1092   0.990       .  S
O1029      C1049   1.275       .  A
O1030      C1051   1.306       .  A
O1031     Zr1041   2.396       .  S
O1031      C1050   1.278       .  A
O1032     Zr1040   2.387       .  S
O1032      C1051   1.276       .  A
O1033      C1050   1.303       .  A
O1034     Zr1042   2.549       .  S
O1034      C1049   1.309       .  A
O1035     Zr1040   2.365       .  S
O1035     Zr1042   2.342       .  S
O1036     Zr1041   2.375       .  S
O1036     Zr1042   2.331       .  S
O1036      H1071   0.963       .  S
O1037     Zr1040   2.387       .  S
O1037     Zr1057   2.431       .  S
O1037      H1074   0.966       .  S
O1038     Zr1041   2.391       .  S
O1038     Zr1057   2.439       .  S
Zr1039     O1064   2.433       .  S
Zr1039     O1058   2.376       .  S
Zr1039     O1066   2.575       .  S
Zr1039     O1054   2.573       .  S
Zr1039     O1045   2.427       .  S
Zr1039     O1046   2.431       .  S
Zr1039     O1047   2.374       .  S
Zr1039     O1048   2.378       .  S
Zr1040     O1059   2.441       .  S
Zr1040     O1052   2.415       .  S
Zr1040     O1053   2.369       .  S
Zr1040     O1046   2.402       .  S
Zr1040     O1047   2.374       .  S
Zr1041     O1043   2.436       .  S
Zr1041     O1065   2.416       .  S
Zr1041     O1067   2.384       .  S
Zr1041     O1045   2.389       .  S
Zr1041     O1048   2.379       .  S
Zr1042     O1068   2.435       .  S
Zr1042     O1069   2.435       .  S
Zr1042     O1044   2.431       .  S
Zr1042     O1045   2.439       .  S
Zr1042     O1046   2.433       .  S
O1043      H1080   0.991       .  S
O1044      H1075   0.990       .  S
O1044      H1089   0.988       .  S
O1046      H1072   0.965       .  S
O1047     Zr1057   2.346       .  S
O1048     Zr1057   2.344       .  S
O1048      H1073   0.964       .  S
C1049      C1954   1.509       .  S
C1050      C1964   1.504       .  S
C1051      C1974   1.520       .  S
O1052      H1088   0.989       .  S
O1053      C1055   1.273       .  A
O1054      C1055   1.313       .  A
C1055      C2997   1.515       .  S
O1056     Zr1057   2.438       .  S
O1056      H1085   0.991       .  S
Zr1057     O1060   2.437       .  S
Zr1057     O1061   2.440       .  S
Zr1057     O1062   2.529       .  S
O1058      C1063   1.272       .  A
O1059      H1076   0.990       .  S
O1059      H1091   0.990       .  S
O1060      H1077   0.990       .  S
O1061      H1081   0.989       .  S
O1061      H1090   0.990       .  S
O1062      C1063   1.305       .  A
C1063      C1987   1.515       .  S
O1064      H1083   0.990       .  S
O1064      H1087   0.990       .  S
O1065      H1079   0.989       .  S
O1065      H1086   0.987       .  S
O1066      C1070   1.313       .  A
O1067      C1070   1.277       .  A
O1068      H1078   0.990       .  S
O1069      H1082   0.990       .  S
C1070      C2157   1.525       .  S
Zr1093     O1094   2.433   1_545  S
Zr1093     O1095   2.389   1_655  S
Zr1093     O1096   2.471       .  S
Zr1093     O1099   2.477   1_645  S
Zr1093     O1101   2.374   1_655  S
Zr1093     O1102   2.380   1_655  S
Zr1093     O1103   2.412       .  S
Zr1093     O1104   2.411   1_545  S
O1094      H1150   0.990   1_565  S
O1094      H1158   0.990       .  S
O1095      C1115   1.278       .  A
O1096      C1117   1.294       .  A
O1097     Zr1107   2.397       .  S
O1097      C1116   1.279       .  A
O1098     Zr1106   2.375       .  S
O1098      C1117   1.273       .  A
O1099      C1116   1.293       .  A
O1100     Zr1108   2.484       .  S
O1100      C1115   1.294       .  A
O1101     Zr1106   2.366   1_455  S
O1101     Zr1108   2.351       .  S
O1102     Zr1107   2.379   1_545  S
O1102     Zr1108   2.358       .  S
O1102      H1137   0.963       .  S
O1103     Zr1106   2.401       .  S
O1103     Zr1123   2.423   1_545  S
O1103      H1140   0.966       .  S
O1104     Zr1107   2.377   1_655  S
O1104     Zr1123   2.410       .  S
Zr1105     O1130   2.434   1_655  S
Zr1105     O1124   2.392   1_545  S
Zr1105     O1132   2.478   1_645  S
Zr1105     O1120   2.475       .  S
Zr1105     O1111   2.409   1_655  S
Zr1105     O1112   2.416   1_655  S
Zr1105     O1113   2.361       .  S
Zr1105     O1114   2.383   1_545  S
Zr1106     O1125   2.442       .  S
Zr1106     O1118   2.435       .  S
Zr1106     O1119   2.384       .  S
Zr1106     O1112   2.389   1_655  S
Zr1106     O1113   2.360       .  S
Zr1107     O1109   2.434       .  S
Zr1107     O1131   2.438       .  S
Zr1107     O1133   2.369       .  S
Zr1107     O1111   2.392   1_565  S
Zr1107     O1114   2.373   1_455  S
Zr1108     O1134   2.435       .  S
Zr1108     O1135   2.435       .  S
Zr1108     O1110   2.435       .  S
Zr1108     O1111   2.409       .  S
Zr1108     O1112   2.421       .  S
O1109      H1146   0.990       .  S
O1110      H1141   0.990       .  S
O1110      H1155   0.990       .  S
O1112      H1138   0.966       .  S
O1113     Zr1123   2.348   1_545  S
O1114     Zr1123   2.367       .  S
O1114      H1139   0.964       .  S
C1115      C1914   1.490       .  S
C1116      C2354   1.487       .  S
C1117      C1944   1.481       .  S
O1118      H1154   0.989       .  S
O1119      C1121   1.277       .  A
O1120      C1121   1.292       .  A
C1121      C1924   1.487       .  S
O1122     Zr1123   2.440       .  S
O1122      H1151   0.990       .  S
Zr1123     O1126   2.433       .  S
Zr1123     O1127   2.441       .  S
Zr1123     O1128   2.489       .  S
O1124      C1129   1.276       .  A
O1125      H1142   0.990       .  S
O1125      H1157   0.990       .  S
O1126      H1143   0.990       .  S
O1127      H1147   0.990       .  S
O1127      H1156   0.989       .  S
O1128      C1129   1.296       .  A
C1129      C3017   1.505       .  S
O1130      H1149   0.990       .  S
O1130      H1153   0.990       .  S
O1131      H1145   0.990       .  S
O1131      H1152   0.989       .  S
O1132      C1136   1.292       .  A
O1133      C1136   1.273       .  A
O1134      H1144   0.990       .  S
O1135      H1148   0.990       .  S
C1136      C1934   1.470       .  S
C1159      C1884   1.528       .  S
C1159      C1160   1.419       .  A
C1159      C1164   1.415       .  A
C1160      C1161   1.415       .  A
C1160      H1165   1.079       .  S
C1161      C1907   1.496       .  S
C1161      C1162   1.391       .  A
C1162      C1163   1.387       .  A
C1162      H1166   1.082       .  S
C1163      C1894   1.493       .  S
C1163      C1164   1.407       .  A
C1164      H1167   1.074       .  S
C1168      C1874   1.492       .  S
C1168      C1169   1.419       .  A
C1168      C1173   1.396       .  A
C1169      C1170   1.417       .  A
C1169      H1174   1.083       .  S
C1170      C1857   1.513       .  S
C1170      C1171   1.412       .  A
C1171      C1172   1.417       .  A
C1171      H1175   1.084       .  S
C1172      C1867   1.498       .  S
C1172      C1173   1.398       .  A
C1173      H1176   1.084       .  S
C1177      C1844   1.518   1_545  S
C1177      C1178   1.398       .  A
C1177      C1182   1.425       .  A
C1178      C1179   1.401       .  A
C1178      H1183   1.083       .  S
C1179      C1834   1.493       .  S
C1179      C1180   1.403       .  A
C1180      C1181   1.406       .  A
C1180      H1184   1.082       .  S
C1181      C1824   1.523       .  S
C1181      C1182   1.429       .  A
C1182      H1185   1.082       .  S
C1186      C1814   1.507       .  S
C1186      C1187   1.408       .  A
C1186      C1191   1.408       .  A
C1187      C1188   1.418       .  A
C1187      H1192   1.081       .  S
C1188      C1804   1.525       .  S
C1188      C1189   1.416       .  A
C1189      C1190   1.416       .  A
C1189      H1193   1.079       .  S
C1190      C1794   1.511       .  S
C1190      C1191   1.406       .  A
C1191      H1194   1.084       .  S
C1195      C1797   1.616       .  S
C1195      C1827   1.623       .  S
C1195      C2314   1.621       .  S
C1195      C3217   1.641       .  S
C1196      C1837   1.592       .  S
C1196      C1854   1.625       .  S
C1196      C2654   1.630       .  S
C1196      C2847   1.612       .  S
C1197      C1807   1.614       .  S
C1197      C1877   1.628       .  S
C1197      C1967   1.593       .  S
C1197      C3307   1.621       .  S
C1198      C1847   1.628       .  S
C1198      C1904   1.588       .  S
C1198      C2607   1.585       .  S
C1198      C2827   1.606       .  S
C1199      C1784   1.603       .  S
C1199      C1817   1.620       .  S
C1199      C1897   1.587       .  S
C1199      C1927   1.602       .  S
C1200      C1864   1.602       .  S
C1200      C1887   1.622       .  S
C1200      C2267   1.611       .  S
C1200      C2494   1.585       .  S
C1201      C1777   1.490       .  S
C1201      C1202   1.409       .  A
C1201      C1206   1.410       .  A
C1202      C1203   1.410       .  A
C1202      H1207   1.084       .  S
C1203      C1764   1.509       .  S
C1203      C1204   1.422       .  A
C1204      C1205   1.417       .  A
C1204      H1208   1.083       .  S
C1205      C1754   1.512   1_455  S
C1205      C1206   1.403       .  A
C1206      H1209   1.084       .  S
C1210      C1744   1.620       .  S
C1210      C1757   1.643       .  S
C1210      C1977   1.609       .  S
C1210      C2627   1.613       .  S
C1211      C1717   1.530       .  S
C1211      C1212   1.412       .  A
C1211      C1216   1.427       .  A
C1212      C1213   1.413       .  A
C1212      H1217   1.081       .  S
C1213      C1734   1.517       .  S
C1213      C1214   1.408       .  A
C1214      C1215   1.421       .  A
C1214      H1218   1.078       .  S
C1215      C1724   1.544       .  S
C1215      C1216   1.429       .  A
C1216      H1219   1.079       .  S
C1220      C1704   1.504       .  S
C1220      C1221   1.415       .  A
C1220      C1225   1.392       .  A
C1221      C1222   1.432       .  A
C1221      H1226   1.076       .  S
C1222      C1747   1.556   1_455  S
C1222      C1223   1.419       .  A
C1223      C1224   1.420       .  A
C1223      H1227   1.069       .  S
C1224      C1694   1.498       .  S
C1224      C1225   1.396       .  A
C1225      H1228   1.084       .  S
C1229      C1677   1.480       .  S
C1229      C1230   1.407       .  A
C1229      C1234   1.404       .  A
C1230      C1231   1.399       .  A
C1230      H1235   1.084       .  S
C1231      C1667   1.482       .  S
C1231      C1232   1.403       .  A
C1232      C1233   1.408       .  A
C1232      H1236   1.083       .  S
C1233      C1684   1.511       .  S
C1233      C1234   1.410       .  A
C1234      H1237   1.079       .  S
C1238      C1654   1.592       .  S
C1238      C1664   1.593       .  S
C1238      C1707   1.599       .  S
C1238      C2887   1.615       .  S
C1239      C1697   1.607       .  S
C1239      C1727   1.634       .  S
C1239      C2577   1.596       .  S
C1239      C2937   1.608       .  S
C1240      C1674   1.597       .  S
C1240      C1774   1.625       .  S
C1240      C2697   1.604       .  S
C1240      C2744   1.584       .  S
C1241      C1687   1.581       .  S
C1241      C1714   1.656       .  S
C1241      C2787   1.637       .  S
C1241      C3267   1.584       .  S
C1242      C1737   1.595       .  S
C1242      C1767   1.623       .  S
C1242      C1937   1.609       .  S
C1242      C2647   1.639       .  S
C1243      C1624   1.478       .  S
C1243      C1244   1.387       .  A
C1243      C1248   1.405       .  A
C1244      C1245   1.392       .  A
C1244      H1249   1.083       .  S
C1245      C1644   1.481       .  S
C1245      C1246   1.410       .  A
C1246      C1247   1.422       .  A
C1246      H1250   1.082       .  S
C1247      C1634   1.520       .  S
C1247      C1248   1.410       .  A
C1248      H1251   1.078       .  S
C1252      C1614   1.610       .  S
C1252      C1627   1.587       .  S
C1252      C2544   1.586       .  S
C1252      C2587   1.613       .  S
C1253      C1604   1.620       .  S
C1253      C1647   1.605       .  S
C1253      C3207   1.580       .  S
C1253      C3257   1.590       .  S
C1254      C1594   1.514       .  S
C1254      C1255   1.411       .  A
C1254      C1259   1.415       .  A
C1255      C1256   1.417       .  A
C1255      H1260   1.082       .  S
C1256      C1607   1.517       .  S
C1256      C1257   1.409       .  A
C1257      C1258   1.403       .  A
C1257      H1261   1.082       .  S
C1258      C1587   1.501       .  S
C1258      C1259   1.419       .  A
C1259      H1262   1.083       .  S
C1263      C1567   1.602       .  S
C1263      C1574   1.602       .  S
C1263      C1584   1.631       .  S
C1263      C1957   1.635       .  S
C1264      C1557   1.517   1_655  S
C1264      C1265   1.410       .  A
C1264      C1269   1.417       .  A
C1265      C1266   1.409       .  A
C1265      H1270   1.082       .  S
C1266      C1617   1.499       .  S
C1266      C1267   1.398       .  A
C1267      C1268   1.402       .  A
C1267      H1271   1.083       .  S
C1268      C1577   1.507       .  S
C1268      C1269   1.414       .  A
C1269      H1272   1.081       .  S
C1273      C1537   1.507       .  S
C1273      C1274   1.408       .  A
C1273      C1278   1.407       .  A
C1274      C1275   1.404       .  A
C1274      H1279   1.084       .  S
C1275      C1544   1.491   1_655  S
C1275      C1276   1.402       .  A
C1276      C1277   1.407       .  A
C1276      H1280   1.080       .  S
C1277      C1524   1.512       .  S
C1277      C1278   1.419       .  A
C1278      H1281   1.080       .  S
C1282      C1547   1.615       .  S
C1282      C1554   1.615       .  S
C1282      C2864   1.600       .  S
C1282      C2927   1.617       .  S
C1283      C1534   1.620       .  S
C1283      C1637   1.612       .  S
C1283      C2294   1.618       .  S
C1283      C2727   1.603       .  S
C1284      C1527   1.614       .  S
C1284      C1597   1.637       .  S
C1284      C1947   1.586       .  S
C1284      C2337   1.607       .  S
Zr1285     O1286   2.434   1_655  S
Zr1285     O1287   2.394       .  S
Zr1285     O1288   2.452   1_655  S
Zr1285     O1291   2.461       .  S
Zr1285     O1293   2.381       .  S
Zr1285     O1294   2.382       .  S
Zr1285     O1295   2.405   1_655  S
Zr1285     O1296   2.397       .  S
O1286      H1342   0.990       .  S
O1286      H1350   0.990       .  S
O1287      C1307   1.277       .  A
O1288      C1309   1.289       .  A
O1289     Zr1299   2.366       .  S
O1289      C1308   1.272       .  A
O1290     Zr1298   2.343       .  S
O1290      C1309   1.269       .  A
O1291      C1308   1.290       .  A
O1292     Zr1300   2.440       .  S
O1292      C1307   1.286       .  A
O1293     Zr1298   2.373   1_655  S
O1293     Zr1300   2.363       .  S
O1294     Zr1299   2.369       .  S
O1294     Zr1300   2.366       .  S
O1294      H1329   0.966       .  S
O1295     Zr1298   2.382       .  S
O1295     Zr1315   2.392       .  S
O1295      H1332   0.966       .  S
O1296     Zr1299   2.391       .  S
O1296     Zr1315   2.405   1_655  S
Zr1297     O1322   2.435       .  S
Zr1297     O1316   2.377   1_655  S
Zr1297     O1324   2.464       .  S
Zr1297     O1312   2.458   1_655  S
Zr1297     O1303   2.402       .  S
Zr1297     O1304   2.396       .  S
Zr1297     O1305   2.381   1_655  S
Zr1297     O1306   2.386       .  S
Zr1298     O1317   2.437       .  S
Zr1298     O1310   2.428       .  S
Zr1298     O1311   2.361       .  S
Zr1298     O1304   2.385   1_455  S
Zr1298     O1305   2.354       .  S
Zr1299     O1301   2.433       .  S
Zr1299     O1323   2.436       .  S
Zr1299     O1325   2.377       .  S
Zr1299     O1303   2.381       .  S
Zr1299     O1306   2.374       .  S
Zr1300     O1326   2.434       .  S
Zr1300     O1327   2.436       .  S
Zr1300     O1302   2.435       .  S
Zr1300     O1303   2.405       .  S
Zr1300     O1304   2.392       .  S
O1301      H1338   0.991       .  S
O1302      H1333   0.990       .  S
O1302      H1347   0.989       .  S
O1304      H1330   0.966       .  S
O1305     Zr1315   2.370       .  S
O1306     Zr1315   2.351   1_655  S
O1306      H1331   0.964       .  S
C1307      C2957   1.467       .  S
C1308      C1787   1.469       .  S
C1309      C1514   1.462       .  S
O1310      H1346   0.990       .  S
O1311      C1313   1.270       .  A
O1312      C1313   1.290       .  A
C1313      C2127   1.465       .  S
O1314     Zr1315   2.438       .  S
O1314      H1343   0.990       .  S
Zr1315     O1318   2.437       .  S
Zr1315     O1319   2.440       .  S
Zr1315     O1320   2.442       .  S
O1316      C1321   1.274       .  A
O1317      H1334   0.990       .  S
O1317      H1349   0.990       .  S
O1318      H1335   0.990       .  S
O1319      H1339   0.990       .  S
O1319      H1348   0.990       .  S
O1320      C1321   1.286       .  A
C1321      C1657   1.450       .  S
O1322      H1341   0.990       .  S
O1322      H1345   0.990       .  S
O1323      H1337   0.990       .  S
O1323      H1344   0.990       .  S
O1324      C1328   1.291       .  A
O1325      C1328   1.275       .  A
O1326      H1336   0.990       .  S
O1327      H1340   0.990       .  S
C1328      C1564   1.470       .  S
C1351      C1507   1.482   1_455  S
C1351      C1352   1.394       .  A
C1351      C1356   1.410       .  A
C1352      C1353   1.398       .  A
C1352      H1357   1.084       .  S
C1353      C1494   1.489       .  S
C1353      C1354   1.400       .  A
C1354      C1355   1.399       .  A
C1354      H1358   1.082       .  S
C1355      C1484   1.488   1_554  S
C1355      C1356   1.414       .  A
C1356      H1359   1.083       .  S
C1360      C1457   1.489   1_554  S
C1360      C1361   1.405       .  A
C1360      C1365   1.407       .  A
C1361      C1362   1.401       .  A
C1361      H1366   1.084       .  S
C1362      C1474   1.507       .  S
C1362      C1363   1.414       .  A
C1363      C1364   1.424       .  A
C1363      H1367   1.083       .  S
C1364      C1467   1.516       .  S
C1364      C1365   1.408       .  A
C1365      H1368   1.081       .  S
C1369      C1424   1.489       .  S
C1369      C1370   1.397       .  A
C1369      C1374   1.404       .  A
C1370      C1371   1.407   1_455  A
C1370      H1375   1.082   1_455  S
C1371      C1444   1.508       .  S
C1371      C1372   1.419   1_655  A
C1372      C1373   1.417       .  A
C1372      H1376   1.083       .  S
C1373      C1434   1.513       .  S
C1373      C1374   1.409       .  A
C1374      H1377   1.084       .  S
C1378      C1407   1.469       .  S
C1378      C1379   1.389       .  A
C1378      C1383   1.406       .  A
C1379      C1380   1.396       .  A
C1379      H1384   1.085       .  S
C1380      C1417   1.467       .  S
C1380      C1381   1.397       .  A
C1381      C1382   1.405       .  A
C1381      H1385   1.084       .  S
C1382      C1397   1.490       .  S
C1382      C1383   1.406       .  A
C1383      H1386   1.084       .  S
C1387      C1394   1.601       .  S
C1387      C1437   1.621       .  S
C1387      C1917   1.611       .  S
C1387      C2837   1.601       .  S
C1388      C1427   1.615       .  S
C1388      C1464   1.611       .  S
C1388      C2687   1.613       .  S
C1388      C2897   1.557       .  S
C1389      C1404   1.596       .  S
C1389      C1497   1.581       .  S
C1389      C2537   1.583       .  S
C1389      C2737   1.604       .  S
C1390      C1454   1.609       .  S
C1390      C1487   1.618       .  S
C1390      C1517   1.581       .  S
C1390      C2634   1.598       .  S
C1391      C1447   1.614       .  S
C1391      C1504   1.608       .  S
C1391      C2257   1.589       .  S
C1391      C2304   1.610       .  S
C1392      C1414   1.586       .  S
C1392      C1477   1.623       .  S
C1392      C2487   1.604       .  S
C1392      C3197   1.593       .  S
C1393      C1394   1.458       .  A
C1393      C1398   1.415       .  A
C1393     Br1400   1.951       .  S
C1394      C1395   1.450       .  A
C1395      C1396   1.403       .  A
C1395     Br1402   1.941       .  S
C1396      C1397   1.399       .  A
C1396     Br1401   1.932       .  S
C1397      C1398   1.401       .  A
C1398     Br1399   1.941       .  S
C1403      C1404   1.454       .  A
C1403      C1408   1.421       .  A
C1403     Br1410   1.932       .  S
C1404      C1405   1.452       .  A
C1405      C1406   1.381   1_565  A
C1405     Br1412   1.928       .  S
C1406      C1407   1.379       .  A
C1406     Br1411   1.932       .  S
C1407      C1408   1.399   1_545  A
C1408     Br1409   1.928       .  S
C1413      C1414   1.450       .  A
C1413      C1418   1.398       .  A
C1413     Br1420   1.944       .  S
C1414      C1415   1.456       .  A
C1415      C1416   1.405       .  A
C1415     Br1422   1.939       .  S
C1416      C1417   1.393       .  A
C1416     Br1421   1.936       .  S
C1417      C1418   1.393       .  A
C1418     Br1419   1.936       .  S
C1423      C1424   1.397       .  A
C1423      C1428   1.410       .  A
C1423     Br1430   1.938       .  S
C1424      C1425   1.392       .  A
C1425      C1426   1.419       .  A
C1425     Br1432   1.938       .  S
C1426      C1427   1.452       .  A
C1426     Br1431   1.908       .  S
C1427      C1428   1.447       .  A
C1428     Br1429   1.927       .  S
C1433      C1434   1.400       .  A
C1433      C1438   1.410       .  A
C1433     Br1440   1.937       .  S
C1434      C1435   1.406       .  A
C1435      C1436   1.424       .  A
C1435     Br1442   1.923   1_455  S
C1436      C1437   1.457       .  A
C1436     Br1441   1.947       .  S
C1437      C1438   1.455       .  A
C1438     Br1439   1.936       .  S
C1443      C1444   1.411       .  A
C1443      C1448   1.401       .  A
C1443     Br1450   1.936       .  S
C1444      C1445   1.413       .  A
C1445      C1446   1.427       .  A
C1445     Br1452   1.931       .  S
C1446      C1447   1.448       .  A
C1446     Br1451   1.936       .  S
C1447      C1448   1.437       .  A
C1448     Br1449   1.930       .  S
C1453      C1454   1.461       .  A
C1453      C1458   1.412       .  A
C1453     Br1460   1.950       .  S
C1454      C1455   1.453       .  A
C1455      C1456   1.405       .  A
C1455     Br1462   1.948       .  S
C1456      C1457   1.399       .  A
C1456     Br1461   1.929   1_556  S
C1457      C1458   1.396       .  A
C1458     Br1459   1.936       .  S
C1463      C1464   1.419       .  A
C1463      C1468   1.404       .  A
C1463     Br1470   1.928       .  S
C1464      C1465   1.465       .  A
C1465      C1466   1.412       .  A
C1465     Br1472   1.951       .  S
C1466      C1467   1.406       .  A
C1466     Br1471   1.931       .  S
C1467      C1468   1.420       .  A
C1468     Br1469   1.912       .  S
C1473      C1474   1.400       .  A
C1473      C1478   1.418       .  A
C1473     Br1480   1.938       .  S
C1474      C1475   1.401       .  A
C1475      C1476   1.420       .  A
C1475     Br1482   1.933       .  S
C1476      C1477   1.460       .  A
C1476     Br1481   1.944       .  S
C1477      C1478   1.457       .  A
C1478     Br1479   1.939       .  S
C1483      C1484   1.397       .  A
C1483      C1488   1.410       .  A
C1483     Br1490   1.935   1_556  S
C1484      C1485   1.388       .  A
C1485      C1486   1.421       .  A
C1485     Br1492   1.937   1_455  S
C1486      C1487   1.469       .  A
C1486     Br1491   1.932       .  S
C1487      C1488   1.450       .  A
C1488     Br1489   1.940       .  S
C1493      C1494   1.405   1_565  A
C1493      C1498   1.398       .  A
C1493     Br1500   1.941   1_565  S
C1494      C1495   1.412   1_545  A
C1495      C1496   1.413       .  A
C1495     Br1502   1.944   1_455  S
C1496      C1497   1.450       .  A
C1496     Br1501   1.959       .  S
C1497      C1498   1.446       .  A
C1498     Br1499   1.945       .  S
C1503      C1504   1.427       .  A
C1503      C1508   1.411       .  A
C1503     Br1510   1.923       .  S
C1504      C1505   1.443       .  A
C1505      C1506   1.411       .  A
C1505     Br1512   1.930       .  S
C1506      C1507   1.396       .  A
C1506     Br1511   1.936   1_655  S
C1507      C1508   1.410       .  A
C1508     Br1509   1.922       .  S
C1513      C1514   1.402       .  A
C1513      C1518   1.388       .  A
C1513     Br1520   1.930       .  S
C1514      C1515   1.390       .  A
C1515      C1516   1.402       .  A
C1515     Br1522   1.934       .  S
C1516      C1517   1.465       .  A
C1516     Br1521   1.942       .  S
C1517      C1518   1.437       .  A
C1518     Br1519   1.947       .  S
C1523      C1524   1.408       .  A
C1523      C1528   1.401       .  A
C1523     Br1530   1.939       .  S
C1524      C1525   1.421       .  A
C1525      C1526   1.423       .  A
C1525     Br1532   1.947       .  S
C1526      C1527   1.447       .  A
C1526     Br1531   1.946       .  S
C1527      C1528   1.430       .  A
C1528     Br1529   1.943       .  S
C1533      C1534   1.459       .  A
C1533      C1538   1.428       .  A
C1533     Br1540   1.948       .  S
C1534      C1535   1.454       .  A
C1535      C1536   1.398       .  A
C1535     Br1542   1.934       .  S
C1536      C1537   1.397       .  A
C1536     Br1541   1.940       .  S
C1537      C1538   1.408       .  A
C1538     Br1539   1.927       .  S
C1543      C1544   1.401   1_655  A
C1543      C1548   1.403   1_655  A
C1543     Br1550   1.939       .  S
C1544      C1545   1.409       .  A
C1545      C1546   1.421       .  A
C1545     Br1552   1.930       .  S
C1546      C1547   1.437       .  A
C1546     Br1551   1.925       .  S
C1547      C1548   1.442       .  A
C1548     Br1549   1.938   1_455  S
C1553      C1554   1.448       .  A
C1553      C1558   1.420       .  A
C1553     Br1560   1.928       .  S
C1554      C1555   1.437       .  A
C1555      C1556   1.421       .  A
C1555     Br1562   1.934       .  S
C1556      C1557   1.416       .  A
C1556     Br1561   1.930       .  S
C1557      C1558   1.410       .  A
C1558     Br1559   1.945   1_455  S
C1563      C1564   1.387       .  A
C1563      C1568   1.383       .  A
C1563     Br1570   1.930       .  S
C1564      C1565   1.419       .  A
C1565      C1566   1.419       .  A
C1565     Br1572   1.939       .  S
C1566      C1567   1.440       .  A
C1566     Br1571   1.930       .  S
C1567      C1568   1.433       .  A
C1568     Br1569   1.928       .  S
C1573      C1574   1.435       .  A
C1573      C1578   1.401       .  A
C1573     Br1580   1.923       .  S
C1574      C1575   1.453       .  A
C1575      C1576   1.429       .  A
C1575     Br1582   1.929       .  S
C1576      C1577   1.412       .  A
C1576     Br1581   1.934       .  S
C1577      C1578   1.410       .  A
C1578     Br1579   1.946       .  S
C1583      C1584   1.438       .  A
C1583      C1588   1.428       .  A
C1583     Br1590   1.921       .  S
C1584      C1585   1.464       .  A
C1585      C1586   1.409       .  A
C1585     Br1592   1.946       .  S
C1586      C1587   1.390       .  A
C1586     Br1591   1.941       .  S
C1587      C1588   1.408       .  A
C1588     Br1589   1.928       .  S
C1593      C1594   1.400       .  A
C1593      C1598   1.406       .  A
C1593     Br1600   1.925       .  S
C1594      C1595   1.406       .  A
C1595      C1596   1.436       .  A
C1595     Br1602   1.934       .  S
C1596      C1597   1.462       .  A
C1596     Br1601   1.929       .  S
C1597      C1598   1.434       .  A
C1598     Br1599   1.921       .  S
C1603      C1604   1.450       .  A
C1603      C1608   1.436       .  A
C1603     Br1610   1.939       .  S
C1604      C1605   1.437       .  A
C1605      C1606   1.392       .  A
C1605     Br1612   1.934       .  S
C1606      C1607   1.408       .  A
C1606     Br1611   1.928       .  S
C1607      C1608   1.425       .  A
C1608     Br1609   1.938       .  S
C1613      C1614   1.448       .  A
C1613      C1618   1.417       .  A
C1613     Br1620   1.943       .  S
C1614      C1615   1.456       .  A
C1615      C1616   1.405       .  A
C1615     Br1622   1.934       .  S
C1616      C1617   1.400       .  A
C1616     Br1621   1.943       .  S
C1617      C1618   1.409       .  A
C1618     Br1619   1.933       .  S
C1623      C1624   1.392       .  A
C1623      C1628   1.397       .  A
C1623     Br1630   1.921       .  S
C1624      C1625   1.398       .  A
C1625      C1626   1.407       .  A
C1625     Br1632   1.936       .  S
C1626      C1627   1.449       .  A
C1626     Br1631   1.933       .  S
C1627      C1628   1.455       .  A
C1628     Br1629   1.959       .  S
C1633      C1634   1.402       .  A
C1633      C1638   1.407       .  A
C1633     Br1640   1.939       .  S
C1634      C1635   1.420       .  A
C1635      C1636   1.429       .  A
C1635     Br1642   1.947       .  S
C1636      C1637   1.459       .  A
C1636     Br1641   1.965       .  S
C1637      C1638   1.448       .  A
C1638     Br1639   1.940       .  S
C1643      C1644   1.407       .  A
C1643      C1648   1.406       .  A
C1643     Br1650   1.938       .  S
C1644      C1645   1.404       .  A
C1645      C1646   1.410       .  A
C1645     Br1652   1.930       .  S
C1646      C1647   1.441       .  A
C1646     Br1651   1.940       .  S
C1647      C1648   1.435       .  A
C1648     Br1649   1.936       .  S
C1653      C1654   1.441       .  A
C1653      C1658   1.398       .  A
C1653     Br1660   1.923       .  S
C1654      C1655   1.453       .  A
C1655      C1656   1.402       .  A
C1655     Br1662   1.938       .  S
C1656      C1657   1.390       .  A
C1656     Br1661   1.927       .  S
C1657      C1658   1.387       .  A
C1658     Br1659   1.931       .  S
C1663      C1664   1.452       .  A
C1663      C1668   1.403       .  A
C1663     Br1670   1.951       .  S
C1664      C1665   1.428       .  A
C1665      C1666   1.409       .  A
C1665     Br1672   1.933       .  S
C1666      C1667   1.403       .  A
C1666     Br1671   1.917       .  S
C1667      C1668   1.396       .  A
C1668     Br1669   1.940       .  S
C1673      C1674   1.450       .  A
C1673      C1678   1.420       .  A
C1673     Br1680   1.940       .  S
C1674      C1675   1.437       .  A
C1675      C1676   1.389       .  A
C1675     Br1682   1.924       .  S
C1676      C1677   1.388       .  A
C1676     Br1681   1.931       .  S
C1677      C1678   1.407       .  A
C1678     Br1679   1.926       .  S
C1683      C1684   1.418       .  A
C1683      C1688   1.416       .  A
C1683     Br1690   1.935       .  S
C1684      C1685   1.409       .  A
C1685      C1686   1.401       .  A
C1685     Br1692   1.923       .  S
C1686      C1687   1.424       .  A
C1686     Br1691   1.931       .  S
C1687      C1688   1.458       .  A
C1688     Br1689   1.972       .  S
C1693      C1694   1.394       .  A
C1693      C1698   1.406       .  A
C1693     Br1700   1.939       .  S
C1694      C1695   1.403       .  A
C1695      C1696   1.415       .  A
C1695     Br1702   1.926       .  S
C1696      C1697   1.449       .  A
C1696     Br1701   1.938       .  S
C1697      C1698   1.450       .  A
C1698     Br1699   1.934       .  S
C1703      C1704   1.396       .  A
C1703      C1708   1.409       .  A
C1703     Br1710   1.946       .  S
C1704      C1705   1.414       .  A
C1705      C1706   1.421       .  A
C1705     Br1712   1.925       .  S
C1706      C1707   1.440       .  A
C1706     Br1711   1.933       .  S
C1707      C1708   1.452       .  A
C1708     Br1709   1.921       .  S
C1713      C1714   1.452       .  A
C1713      C1718   1.437       .  A
C1713     Br1720   1.933       .  S
C1714      C1715   1.416       .  A
C1715      C1716   1.391       .  A
C1715     Br1722   1.945       .  S
C1716      C1717   1.415       .  A
C1716     Br1721   1.906       .  S
C1717      C1718   1.422       .  A
C1718     Br1719   1.921       .  S
C1723      C1724   1.421       .  A
C1723      C1728   1.413       .  A
C1723     Br1730   1.933       .  S
C1724      C1725   1.426       .  A
C1725      C1726   1.428       .  A
C1725     Br1732   1.925       .  S
C1726      C1727   1.440       .  A
C1726     Br1731   1.946       .  S
C1727      C1728   1.419       .  A
C1728     Br1729   1.934       .  S
C1733      C1734   1.413       .  A
C1733      C1738   1.430       .  A
C1733     Br1740   1.909       .  S
C1734      C1735   1.394       .  A
C1735      C1736   1.400       .  A
C1735     Br1742   1.930       .  S
C1736      C1737   1.441       .  A
C1736     Br1741   1.915       .  S
C1737      C1738   1.446       .  A
C1738     Br1739   1.930       .  S
C1743      C1744   1.446       .  A
C1743      C1748   1.399       .  A
C1743     Br1750   1.922       .  S
C1744      C1745   1.452       .  A
C1745      C1746   1.442       .  A
C1745     Br1752   1.937       .  S
C1746      C1747   1.438       .  A
C1746     Br1751   1.929       .  S
C1747      C1748   1.399       .  A
C1748     Br1749   1.914       .  S
C1753      C1754   1.394       .  A
C1753      C1758   1.427       .  A
C1753     Br1760   1.935       .  S
C1754      C1755   1.394       .  A
C1755      C1756   1.422       .  A
C1755     Br1762   1.936   1_655  S
C1756      C1757   1.467       .  A
C1756     Br1761   1.931       .  S
C1757      C1758   1.460       .  A
C1758     Br1759   1.913       .  S
C1763      C1764   1.410       .  A
C1763      C1768   1.430       .  A
C1763     Br1770   1.927       .  S
C1764      C1765   1.398       .  A
C1765      C1766   1.407       .  A
C1765     Br1772   1.931       .  S
C1766      C1767   1.456       .  A
C1766     Br1771   1.957       .  S
C1767      C1768   1.445       .  A
C1768     Br1769   1.941       .  S
C1773      C1774   1.433       .  A
C1773      C1778   1.426       .  A
C1773     Br1780   1.925       .  S
C1774      C1775   1.437       .  A
C1775      C1776   1.396       .  A
C1775     Br1782   1.926       .  S
C1776      C1777   1.389       .  A
C1776     Br1781   1.926       .  S
C1777      C1778   1.404       .  A
C1778     Br1779   1.909       .  S
C1783      C1784   1.465       .  A
C1783      C1788   1.416       .  A
C1783     Br1790   1.953       .  S
C1784      C1785   1.455       .  A
C1785      C1786   1.407       .  A
C1785     Br1792   1.943       .  S
C1786      C1787   1.392       .  A
C1786     Br1791   1.939       .  S
C1787      C1788   1.387       .  A
C1788     Br1789   1.937       .  S
C1793      C1794   1.401       .  A
C1793      C1798   1.410       .  A
C1793     Br1800   1.942       .  S
C1794      C1795   1.412       .  A
C1795      C1796   1.424       .  A
C1795     Br1802   1.936       .  S
C1796      C1797   1.453       .  A
C1796     Br1801   1.949       .  S
C1797      C1798   1.455       .  A
C1798     Br1799   1.936       .  S
C1803      C1804   1.432       .  A
C1803      C1808   1.442       .  A
C1803     Br1810   1.931       .  S
C1804      C1805   1.410       .  A
C1805      C1806   1.387       .  A
C1805     Br1812   1.929       .  S
C1806      C1807   1.432       .  A
C1806     Br1811   1.929       .  S
C1807      C1808   1.447       .  A
C1808     Br1809   1.927       .  S
C1813      C1814   1.398       .  A
C1813      C1818   1.404       .  A
C1813     Br1820   1.944       .  S
C1814      C1815   1.406       .  A
C1815      C1816   1.425       .  A
C1815     Br1822   1.924       .  S
C1816      C1817   1.456       .  A
C1816     Br1821   1.946       .  S
C1817      C1818   1.457       .  A
C1818     Br1819   1.936       .  S
C1823      C1824   1.403       .  A
C1823      C1828   1.414       .  A
C1823     Br1830   1.941       .  S
C1824      C1825   1.419       .  A
C1825      C1826   1.428       .  A
C1825     Br1832   1.935       .  S
C1826      C1827   1.448       .  A
C1826     Br1831   1.943       .  S
C1827      C1828   1.458       .  A
C1828     Br1829   1.932       .  S
C1833      C1834   1.404       .  A
C1833      C1838   1.410       .  A
C1833     Br1840   1.944       .  S
C1834      C1835   1.401       .  A
C1835      C1836   1.402       .  A
C1835     Br1842   1.923       .  S
C1836      C1837   1.449       .  A
C1836     Br1841   1.955       .  S
C1837      C1838   1.442       .  A
C1838     Br1839   1.913       .  S
C1843      C1844   1.402       .  A
C1843      C1848   1.426       .  A
C1843     Br1850   1.941       .  S
C1844      C1845   1.412       .  A
C1845      C1846   1.420       .  A
C1845     Br1852   1.945   1_565  S
C1846      C1847   1.455       .  A
C1846     Br1851   1.951       .  S
C1847      C1848   1.463       .  A
C1848     Br1849   1.942       .  S
C1853      C1854   1.443       .  A
C1853      C1858   1.404       .  A
C1853     Br1860   1.929       .  S
C1854      C1855   1.440       .  A
C1855      C1856   1.440       .  A
C1855     Br1862   1.936       .  S
C1856      C1857   1.415       .  A
C1856     Br1861   1.923       .  S
C1857      C1858   1.397       .  A
C1858     Br1859   1.935       .  S
C1863      C1864   1.444       .  A
C1863      C1868   1.421       .  A
C1863     Br1870   1.941       .  S
C1864      C1865   1.442       .  A
C1865      C1866   1.399       .  A
C1865     Br1872   1.936       .  S
C1866      C1867   1.396       .  A
C1866     Br1871   1.933       .  S
C1867      C1868   1.410       .  A
C1868     Br1869   1.930       .  S
C1873      C1874   1.396       .  A
C1873      C1878   1.421       .  A
C1873     Br1880   1.938       .  S
C1874      C1875   1.388       .  A
C1875      C1876   1.411       .  A
C1875     Br1882   1.941       .  S
C1876      C1877   1.469       .  A
C1876     Br1881   1.943       .  S
C1877      C1878   1.449       .  A
C1878     Br1879   1.905       .  S
C1883      C1884   1.430       .  A
C1883      C1888   1.427       .  A
C1883     Br1890   1.944       .  S
C1884      C1885   1.422       .  A
C1885      C1886   1.408       .  A
C1885     Br1892   1.941       .  S
C1886      C1887   1.420       .  A
C1886     Br1891   1.927       .  S
C1887      C1888   1.427       .  A
C1888     Br1889   1.925       .  S
C1893      C1894   1.391       .  A
C1893      C1898   1.406       .  A
C1893     Br1900   1.937       .  S
C1894      C1895   1.416       .  A
C1895      C1896   1.408       .  A
C1895     Br1902   1.928       .  S
C1896      C1897   1.446       .  A
C1896     Br1901   1.967       .  S
C1897      C1898   1.455       .  A
C1898     Br1899   1.934       .  S
C1903      C1904   1.449       .  A
C1903      C1908   1.408   1_565  A
C1903     Br1910   1.939       .  S
C1904      C1905   1.447       .  A
C1905      C1906   1.395       .  A
C1905     Br1912   1.932       .  S
C1906      C1907   1.396   1_565  A
C1906     Br1911   1.919       .  S
C1907      C1908   1.410       .  A
C1908     Br1909   1.936       .  S
C1913      C1914   1.393       .  A
C1913      C1918   1.413       .  A
C1913     Br1920   1.936       .  S
C1914      C1915   1.402       .  A
C1915      C1916   1.418       .  A
C1915     Br1922   1.934       .  S
C1916      C1917   1.459       .  A
C1916     Br1921   1.958       .  S
C1917      C1918   1.458       .  A
C1918     Br1919   1.941       .  S
C1923      C1924   1.404       .  A
C1923      C1928   1.401       .  A
C1923     Br1930   1.933       .  S
C1924      C1925   1.394       .  A
C1925      C1926   1.412       .  A
C1925     Br1932   1.933       .  S
C1926      C1927   1.465       .  A
C1926     Br1931   1.940       .  S
C1927      C1928   1.448       .  A
C1928     Br1929   1.946       .  S
C1933      C1934   1.403       .  A
C1933      C1938   1.418       .  A
C1933     Br1940   1.943       .  S
C1934      C1935   1.397       .  A
C1935      C1936   1.404       .  A
C1935     Br1942   1.930       .  S
C1936      C1937   1.431       .  A
C1936     Br1941   1.929       .  S
C1937      C1938   1.450       .  A
C1938     Br1939   1.927       .  S
C1943      C1944   1.396       .  A
C1943      C1948   1.389       .  A
C1943     Br1950   1.935       .  S
C1944      C1945   1.422       .  A
C1945      C1946   1.421       .  A
C1945     Br1952   1.933       .  S
C1946      C1947   1.435       .  A
C1946     Br1951   1.942       .  S
C1947      C1948   1.439       .  A
C1948     Br1949   1.943       .  S
C1953      C1954   1.414       .  A
C1953      C1958   1.428       .  A
C1953     Br1960   1.918       .  S
C1954      C1955   1.395       .  A
C1955      C1956   1.420       .  A
C1955     Br1962   1.937       .  S
C1956      C1957   1.459       .  A
C1956     Br1961   1.921       .  S
C1957      C1958   1.441       .  A
C1958     Br1959   1.938       .  S
C1963      C1964   1.398       .  A
C1963      C1968   1.415       .  A
C1963     Br1970   1.939       .  S
C1964      C1965   1.420       .  A
C1965      C1966   1.420       .  A
C1965     Br1972   1.924       .  S
C1966      C1967   1.426       .  A
C1966     Br1971   1.941       .  S
C1967      C1968   1.457       .  A
C1968     Br1969   1.928       .  S
C1973      C1974   1.400       .  A
C1973      C1978   1.427       .  A
C1973     Br1980   1.936       .  S
C1974      C1975   1.417       .  A
C1975      C1976   1.418       .  A
C1975     Br1982   1.929       .  S
C1976      C1977   1.439       .  A
C1976     Br1981   1.944       .  S
C1977      C1978   1.464       .  A
C1978     Br1979   1.934       .  S
C1983      C1984   1.445       .  A
C1983      C1988   1.422       .  A
C1983     Br1990   1.946       .  S
C1984      C1985   1.455       .  A
C1985      C1986   1.416       .  A
C1985     Br1992   1.939       .  S
C1986      C1987   1.402       .  A
C1986     Br1991   1.938       .  S
C1987      C1988   1.426       .  A
C1988     Br1989   1.945       .  S
C1993      C1994   1.396       .  A
C1993      C1998   1.415       .  A
C1993     Br2000   1.940       .  S
C1994      C1995   1.405       .  A
C1995      C1996   1.430       .  A
C1995     Br2002   1.935       .  S
C1996      C1997   1.451       .  A
C1996     Br2001   1.921       .  S
C1997      C1998   1.456       .  A
C1998     Br1999   1.928       .  S
C2003      C2004   1.395       .  A
C2003      C2008   1.400       .  A
C2003     Br2010   1.941       .  S
C2004      C2005   1.406       .  A
C2005      C2006   1.427       .  A
C2005     Br2012   1.933       .  S
C2006      C2007   1.446       .  A
C2006     Br2011   1.923       .  S
C2007      C2008   1.454       .  A
C2008     Br2009   1.951       .  S
C2013      C2014   1.467       .  A
C2013      C2018   1.430       .  A
C2013     Br2020   1.935       .  S
C2014      C2015   1.455       .  A
C2015      C2016   1.419   1_556  A
C2015     Br2022   1.939       .  S
C2016      C2017   1.404       .  A
C2016     Br2021   1.940       .  S
C2017      C2018   1.399   1_554  A
C2018     Br2019   1.941       .  S
C2023      C2024   1.446       .  A
C2023      C2028   1.404       .  A
C2023     Br2030   1.943       .  S
C2024      C2025   1.463       .  A
C2025      C2026   1.404       .  A
C2025     Br2032   1.956       .  S
C2026      C2027   1.391       .  A
C2026     Br2031   1.935       .  S
C2027      C2028   1.404       .  A
C2028     Br2029   1.939       .  S
C2033      C2034   1.465       .  A
C2033      C2038   1.420       .  A
C2033     Br2040   1.946       .  S
C2034      C2035   1.459       .  A
C2035      C2036   1.432       .  A
C2035     Br2042   1.945       .  S
C2036      C2037   1.412       .  A
C2036     Br2041   1.936   1_556  S
C2037      C2038   1.399       .  A
C2038     Br2039   1.925       .  S
C2043      C2044   1.426       .  A
C2043      C2048   1.435       .  A
C2043     Br2050   1.933       .  S
C2044      C2045   1.405       .  A
C2045      C2046   1.410       .  A
C2045     Br2052   1.934       .  S
C2046      C2047   1.439       .  A
C2046     Br2051   1.937       .  S
C2047      C2048   1.437       .  A
C2048     Br2049   1.922       .  S
C2053      C2054   1.405       .  A
C2053      C2058   1.418       .  A
C2053     Br2060   1.933       .  S
C2054      C2055   1.409       .  A
C2055      C2056   1.420       .  A
C2055     Br2062   1.943       .  S
C2056      C2057   1.460       .  A
C2056     Br2061   1.942       .  S
C2057      C2058   1.460       .  A
C2058     Br2059   1.949       .  S
C2063      C2064   1.436       .  A
C2063      C2068   1.416       .  A
C2063     Br2070   1.946       .  S
C2064      C2065   1.446       .  A
C2065      C2066   1.417       .  A
C2065     Br2072   1.929       .  S
C2066      C2067   1.414       .  A
C2066     Br2071   1.947       .  S
C2067      C2068   1.419       .  A
C2068     Br2069   1.939       .  S
C2073      C2074   1.407       .  A
C2073      C2078   1.412       .  A
C2073     Br2080   1.933       .  S
C2074      C2075   1.413       .  A
C2075      C2076   1.396       .  A
C2075     Br2082   1.922       .  S
C2076      C2077   1.416       .  A
C2076     Br2081   1.923       .  S
C2077      C2078   1.465       .  A
C2078     Br2079   1.954       .  S
C2083      C2084   1.386       .  A
C2083      C2088   1.401       .  A
C2083     Br2090   1.925       .  S
C2084      C2085   1.399       .  A
C2085      C2086   1.402       .  A
C2085     Br2092   1.939       .  S
C2086      C2087   1.449       .  A
C2086     Br2091   1.920       .  S
C2087      C2088   1.455       .  A
C2088     Br2089   1.932       .  S
C2093      C2094   1.396       .  A
C2093      C2098   1.406       .  A
C2093     Br2100   1.955       .  S
C2094      C2095   1.419       .  A
C2095      C2096   1.424       .  A
C2095     Br2102   1.945       .  S
C2096      C2097   1.444       .  A
C2096     Br2101   1.932       .  S
C2097      C2098   1.462       .  A
C2098     Br2099   1.936       .  S
C2103      C2104   1.398       .  A
C2103      C2108   1.405       .  A
C2103     Br2110   1.939       .  S
C2104      C2105   1.406       .  A
C2105      C2106   1.430       .  A
C2105     Br2112   1.928       .  S
C2106      C2107   1.455       .  A
C2106     Br2111   1.942       .  S
C2107      C2108   1.447       .  A
C2108     Br2109   1.935       .  S
C2113      C2114   1.421   1_554  A
C2113      C2118   1.441       .  A
C2113     Br2120   1.941       .  S
C2114      C2115   1.405       .  A
C2115      C2116   1.395   1_556  A
C2115     Br2122   1.932       .  S
C2116      C2117   1.422       .  A
C2116     Br2121   1.935       .  S
C2117      C2118   1.463       .  A
C2118     Br2119   1.946       .  S
C2123      C2124   1.443       .  A
C2123      C2128   1.414       .  A
C2123     Br2130   1.927       .  S
C2124      C2125   1.455       .  A
C2125      C2126   1.405       .  A
C2125     Br2132   1.952       .  S
C2126      C2127   1.393       .  A
C2126     Br2131   1.933       .  S
C2127      C2128   1.383       .  A
C2128     Br2129   1.926       .  S
C2133      C2134   1.463       .  A
C2133      C2138   1.434       .  A
C2133     Br2140   1.947       .  S
C2134      C2135   1.409       .  A
C2135      C2136   1.397       .  A
C2135     Br2142   1.929       .  S
C2136      C2137   1.409       .  A
C2136     Br2141   1.919       .  S
C2137      C2138   1.421       .  A
C2138     Br2139   1.937       .  S
C2143      C2144   1.405       .  A
C2143      C2148   1.410       .  A
C2143     Br2150   1.938       .  S
C2144      C2145   1.411       .  A
C2145      C2146   1.421       .  A
C2145     Br2152   1.931       .  S
C2146      C2147   1.451       .  A
C2146     Br2151   1.946       .  S
C2147      C2148   1.451       .  A
C2148     Br2149   1.938       .  S
C2153      C2154   1.449       .  A
C2153      C2158   1.444       .  A
C2153     Br2160   1.939       .  S
C2154      C2155   1.430       .  A
C2155      C2156   1.410       .  A
C2155     Br2162   1.939       .  S
C2156      C2157   1.408       .  A
C2156     Br2161   1.926       .  S
C2157      C2158   1.415       .  A
C2158     Br2159   1.921       .  S
C2163      C2164   1.455       .  A
C2163      C2168   1.425       .  A
C2163     Br2170   1.938       .  S
C2164      C2165   1.445       .  A
C2165      C2166   1.420       .  A
C2165     Br2172   1.931       .  S
C2166      C2167   1.414       .  A
C2166     Br2171   1.943       .  S
C2167      C2168   1.410       .  A
C2168     Br2169   1.938       .  S
C2173      C2174   1.458       .  A
C2173      C2178   1.413       .  A
C2173     Br2180   1.937       .  S
C2174      C2175   1.441       .  A
C2175      C2176   1.413       .  A
C2175     Br2182   1.943       .  S
C2176      C2177   1.410       .  A
C2176     Br2181   1.924       .  S
C2177      C2178   1.403       .  A
C2178     Br2179   1.939       .  S
C2183      C2184   1.400       .  A
C2183      C2188   1.413       .  A
C2183     Br2190   1.923       .  S
C2184      C2185   1.400       .  A
C2185      C2186   1.400       .  A
C2185     Br2192   1.944       .  S
C2186      C2187   1.452       .  A
C2186     Br2191   1.937       .  S
C2187      C2188   1.454       .  A
C2188     Br2189   1.947       .  S
C2193      C2194   1.391       .  A
C2193      C2198   1.396       .  A
C2193     Br2200   1.938       .  S
C2194      C2195   1.404       .  A
C2195      C2196   1.420       .  A
C2195     Br2202   1.920       .  S
C2196      C2197   1.450       .  A
C2196     Br2201   1.930       .  S
C2197      C2198   1.451       .  A
C2198     Br2199   1.949       .  S
C2203      C2204   1.391       .  A
C2203      C2208   1.406       .  A
C2203     Br2210   1.897       .  S
C2204      C2205   1.395       .  A
C2205      C2206   1.416       .  A
C2205     Br2212   1.928       .  S
C2206      C2207   1.448       .  A
C2206     Br2211   1.920       .  S
C2207      C2208   1.447       .  A
C2208     Br2209   1.939       .  S
C2213      C2214   1.451       .  A
C2213      C2218   1.407       .  A
C2213     Br2220   1.937       .  S
C2214      C2215   1.454       .  A
C2215      C2216   1.403       .  A
C2215     Br2222   1.959       .  S
C2216      C2217   1.396       .  A
C2216     Br2221   1.908       .  S
C2217      C2218   1.401       .  A
C2218     Br2219   1.940       .  S
C2223      C2224   1.403       .  A
C2223      C2228   1.420       .  A
C2223     Br2230   1.923       .  S
C2224      C2225   1.395       .  A
C2225      C2226   1.395       .  A
C2225     Br2232   1.940       .  S
C2226      C2227   1.451       .  A
C2226     Br2231   1.947       .  S
C2227      C2228   1.449       .  A
C2228     Br2229   1.945       .  S
C2233      C2234   1.424       .  A
C2233      C2238   1.434       .  A
C2233     Br2240   1.936       .  S
C2234      C2235   1.397       .  A
C2235      C2236   1.408       .  A
C2235     Br2242   1.955       .  S
C2236      C2237   1.465       .  A
C2236     Br2241   1.933       .  S
C2237      C2238   1.442       .  A
C2238     Br2239   1.931       .  S
C2243      C2244   1.407       .  A
C2243      C2248   1.418       .  A
C2243     Br2250   1.933   1_554  S
C2244      C2245   1.407       .  A
C2245      C2246   1.438       .  A
C2245     Br2252   1.932       .  S
C2246      C2247   1.458       .  A
C2246     Br2251   1.931       .  S
C2247      C2248   1.443       .  A
C2248     Br2249   1.931       .  S
C2253      C2254   1.392       .  A
C2253      C2258   1.396       .  A
C2253     Br2260   1.942       .  S
C2254      C2255   1.402       .  A
C2255      C2256   1.420       .  A
C2255     Br2262   1.934       .  S
C2256      C2257   1.445       .  A
C2256     Br2261   1.927       .  S
C2257      C2258   1.439       .  A
C2258     Br2259   1.920       .  S
C2263      C2264   1.418       .  A
C2263      C2268   1.428       .  A
C2263     Br2270   1.930       .  S
C2264      C2265   1.391       .  A
C2265      C2266   1.396       .  A
C2265     Br2272   1.936       .  S
C2266      C2267   1.443       .  A
C2266     Br2271   1.937       .  S
C2267      C2268   1.438       .  A
C2268     Br2269   1.941       .  S
C2273      C2274   1.392       .  A
C2273      C2278   1.402       .  A
C2273     Br2280   1.946       .  S
C2274      C2275   1.401       .  A
C2275      C2276   1.413       .  A
C2275     Br2282   1.943       .  S
C2276      C2277   1.450       .  A
C2276     Br2281   1.926       .  S
C2277      C2278   1.448       .  A
C2278     Br2279   1.920       .  S
C2283      C2284   1.447       .  A
C2283      C2288   1.416       .  A
C2283     Br2290   1.935       .  S
C2284      C2285   1.421       .  A
C2285      C2286   1.392       .  A
C2285     Br2292   1.926       .  S
C2286      C2287   1.395       .  A
C2286     Br2291   1.930       .  S
C2287      C2288   1.411       .  A
C2288     Br2289   1.938       .  S
C2293      C2294   1.463       .  A
C2293      C2298   1.426       .  A
C2293     Br2300   1.950       .  S
C2294      C2295   1.458       .  A
C2295      C2296   1.408       .  A
C2295     Br2302   1.942       .  S
C2296      C2297   1.392       .  A
C2296     Br2301   1.943       .  S
C2297      C2298   1.395       .  A
C2298     Br2299   1.931       .  S
C2303      C2304   1.449       .  A
C2303      C2308   1.406       .  A
C2303     Br2310   1.948       .  S
C2304      C2305   1.417       .  A
C2305      C2306   1.419       .  A
C2305     Br2312   1.919       .  S
C2306      C2307   1.428       .  A
C2306     Br2311   1.932       .  S
C2307      C2308   1.403       .  A
C2308     Br2309   1.937       .  S
C2313      C2314   1.453       .  A
C2313      C2318   1.409       .  A
C2313     Br2320   1.948       .  S
C2314      C2315   1.468       .  A
C2315      C2316   1.426       .  A
C2315     Br2322   1.942       .  S
C2316      C2317   1.399       .  A
C2316     Br2321   1.944       .  S
C2317      C2318   1.397       .  A
C2318     Br2319   1.935       .  S
C2323      C2324   1.423       .  A
C2323      C2328   1.433       .  A
C2323     Br2330   1.929       .  S
C2324      C2325   1.386       .  A
C2325      C2326   1.395       .  A
C2325     Br2332   1.936       .  S
C2326      C2327   1.449       .  A
C2326     Br2331   1.937       .  S
C2327      C2328   1.433       .  A
C2328     Br2329   1.937       .  S
C2333      C2334   1.431       .  A
C2333      C2338   1.423       .  A
C2333     Br2340   1.927       .  S
C2334      C2335   1.393       .  A
C2335      C2336   1.414       .  A
C2335     Br2342   1.931       .  S
C2336      C2337   1.457       .  A
C2336     Br2341   1.925       .  S
C2337      C2338   1.437       .  A
C2338     Br2339   1.942       .  S
C2343      C2344   1.456       .  A
C2343      C2348   1.405       .  A
C2343     Br2350   1.953       .  S
C2344      C2345   1.429       .  A
C2345      C2346   1.419       .  A
C2345     Br2352   1.925       .  S
C2346      C2347   1.425       .  A
C2346     Br2351   1.948       .  S
C2347      C2348   1.402       .  A
C2348     Br2349   1.942       .  S
C2353      C2354   1.401       .  A
C2353      C2358   1.405       .  A
C2353     Br2360   1.942       .  S
C2354      C2355   1.396       .  A
C2355      C2356   1.415       .  A
C2355     Br2362   1.929       .  S
C2356      C2357   1.449       .  A
C2356     Br2361   1.929       .  S
C2357      C2358   1.448       .  A
C2358     Br2359   1.932       .  S
C2363      C2364   1.449       .  A
C2363      C2368   1.410       .  A
C2363     Br2370   1.941       .  S
C2364      C2365   1.446       .  A
C2365      C2366   1.413       .  A
C2365     Br2372   1.947       .  S
C2366      C2367   1.413       .  A
C2366     Br2371   1.936       .  S
C2367      C2368   1.401       .  A
C2368     Br2369   1.939       .  S
C2373      C2374   1.427       .  A
C2373      C2378   1.416       .  A
C2373     Br2380   1.935       .  S
C2374      C2375   1.453       .  A
C2375      C2376   1.398       .  A
C2375     Br2382   1.956       .  S
C2376      C2377   1.397       .  A
C2376     Br2381   1.941       .  S
C2377      C2378   1.405       .  A
C2378     Br2379   1.924       .  S
C2383      C2384   1.400       .  A
C2383      C2388   1.414       .  A
C2383     Br2390   1.931       .  S
C2384      C2385   1.424       .  A
C2385      C2386   1.444       .  A
C2385     Br2392   1.921       .  S
C2386      C2387   1.439       .  A
C2386     Br2391   1.936       .  S
C2387      C2388   1.447       .  A
C2388     Br2389   1.936       .  S
C2393      C2394   1.398       .  A
C2393      C2398   1.409       .  A
C2393     Br2400   1.937       .  S
C2394      C2395   1.403       .  A
C2395      C2396   1.432       .  A
C2395     Br2402   1.936       .  S
C2396      C2397   1.456       .  A
C2396     Br2401   1.921       .  S
C2397      C2398   1.454       .  A
C2398     Br2399   1.950       .  S
C2403      C2404   1.424       .  A
C2403      C2408   1.451       .  A
C2403     Br2410   1.935       .  S
C2404      C2405   1.422       .  A
C2405      C2406   1.412       .  A
C2405     Br2412   1.927   1_545  S
C2406      C2407   1.414       .  A
C2406     Br2411   1.929       .  S
C2407      C2408   1.461       .  A
C2408     Br2409   1.943       .  S
C2413      C2414   1.460       .  A
C2413      C2418   1.411       .  A
C2413     Br2420   1.953       .  S
C2414      C2415   1.452       .  A
C2415      C2416   1.418       .  A
C2415     Br2422   1.938       .  S
C2416      C2417   1.404       .  A
C2416     Br2421   1.937       .  S
C2417      C2418   1.398       .  A
C2418     Br2419   1.939       .  S
C2423      C2424   1.404       .  A
C2423      C2428   1.429       .  A
C2423     Br2430   1.940       .  S
C2424      C2425   1.402       .  A
C2425      C2426   1.409       .  A
C2425     Br2432   1.952       .  S
C2426      C2427   1.454       .  A
C2426     Br2431   1.929       .  S
C2427      C2428   1.461       .  A
C2428     Br2429   1.933       .  S
C2433      C2434   1.405       .  A
C2433      C2438   1.414       .  A
C2433     Br2440   1.942       .  S
C2434      C2435   1.397       .  A
C2435      C2436   1.403       .  A
C2435     Br2442   1.933       .  S
C2436      C2437   1.450       .  A
C2436     Br2441   1.948       .  S
C2437      C2438   1.459       .  A
C2438     Br2439   1.944       .  S
C2443      C2444   1.453       .  A
C2443      C2448   1.407       .  A
C2443     Br2450   1.933       .  S
C2444      C2445   1.459       .  A
C2445      C2446   1.419       .  A
C2445     Br2452   1.950       .  S
C2446      C2447   1.405       .  A
C2446     Br2451   1.941       .  S
C2447      C2448   1.398       .  A
C2448     Br2449   1.943       .  S
C2453      C2454   1.436       .  A
C2453      C2458   1.397       .  A
C2453     Br2460   1.928       .  S
C2454      C2455   1.463       .  A
C2455      C2456   1.425       .  A
C2455     Br2462   1.948       .  S
C2456      C2457   1.419       .  A
C2456     Br2461   1.949       .  S
C2457      C2458   1.404       .  A
C2458     Br2459   1.950       .  S
C2463      C2464   1.404       .  A
C2463      C2468   1.398       .  A
C2463     Br2470   1.936       .  S
C2464      C2465   1.393       .  A
C2465      C2466   1.400       .  A
C2465     Br2472   1.936       .  S
C2466      C2467   1.457       .  A
C2466     Br2471   1.951       .  S
C2467      C2468   1.433       .  A
C2468     Br2469   1.932       .  S
C2473      C2474   1.392       .  A
C2473      C2478   1.398       .  A
C2473     Br2480   1.933       .  S
C2474      C2475   1.397       .  A
C2475      C2476   1.403       .  A
C2475     Br2482   1.940   1_545  S
C2476      C2477   1.442       .  A
C2476     Br2481   1.938       .  S
C2477      C2478   1.444       .  A
C2478     Br2479   1.933       .  S
C2483      C2484   1.393       .  A
C2483      C2488   1.417       .  A
C2483     Br2490   1.933       .  S
C2484      C2485   1.406       .  A
C2485      C2486   1.405       .  A
C2485     Br2492   1.932       .  S
C2486      C2487   1.442       .  A
C2486     Br2491   1.941       .  S
C2487      C2488   1.465       .  A
C2488     Br2489   1.933       .  S
C2493      C2494   1.447       .  A
C2493      C2498   1.402       .  A
C2493     Br2500   1.950       .  S
C2494      C2495   1.447       .  A
C2495      C2496   1.409       .  A
C2495     Br2502   1.929       .  S
C2496      C2497   1.398       .  A
C2496     Br2501   1.942       .  S
C2497      C2498   1.404       .  A
C2498     Br2499   1.938       .  S
C2503      C2504   1.407       .  A
C2503      C2508   1.410       .  A
C2503     Br2510   1.918       .  S
C2504      C2505   1.421       .  A
C2505      C2506   1.397       .  A
C2505     Br2512   1.939       .  S
C2506      C2507   1.424       .  A
C2506     Br2511   1.935       .  S
C2507      C2508   1.454       .  A
C2508     Br2509   1.962       .  S
C2513      C2514   1.455       .  A
C2513      C2518   1.405       .  A
C2513     Br2520   1.935       .  S
C2514      C2515   1.438       .  A
C2515      C2516   1.394       .  A
C2515     Br2522   1.939       .  S
C2516      C2517   1.405       .  A
C2516     Br2521   1.925       .  S
C2517      C2518   1.404       .  A
C2518     Br2519   1.938       .  S
C2523      C2524   1.397       .  A
C2523      C2528   1.409       .  A
C2523     Br2530   1.937       .  S
C2524      C2525   1.397       .  A
C2525      C2526   1.411       .  A
C2525     Br2532   1.946       .  S
C2526      C2527   1.464       .  A
C2526     Br2531   1.940       .  S
C2527      C2528   1.452       .  A
C2528     Br2529   1.944       .  S
C2533      C2534   1.393       .  A
C2533      C2538   1.396       .  A
C2533     Br2540   1.937       .  S
C2534      C2535   1.406       .  A
C2535      C2536   1.403       .  A
C2535     Br2542   1.945       .  S
C2536      C2537   1.454       .  A
C2536     Br2541   1.954       .  S
C2537      C2538   1.451       .  A
C2538     Br2539   1.939       .  S
C2543      C2544   1.455       .  A
C2543      C2548   1.399       .  A
C2543     Br2550   1.944       .  S
C2544      C2545   1.452       .  A
C2545      C2546   1.405       .  A
C2545     Br2552   1.949       .  S
C2546      C2547   1.410       .  A
C2546     Br2551   1.952       .  S
C2547      C2548   1.393       .  A
C2548     Br2549   1.943       .  S
C2553      C2554   1.468       .  A
C2553      C2558   1.417       .  A
C2553     Br2560   1.930       .  S
C2554      C2555   1.436       .  A
C2555      C2556   1.396       .  A
C2555     Br2562   1.931       .  S
C2556      C2557   1.401       .  A
C2556     Br2561   1.928       .  S
C2557      C2558   1.391       .  A
C2558     Br2559   1.939       .  S
C2563      C2564   1.411       .  A
C2563      C2568   1.391       .  A
C2563     Br2570   1.923       .  S
C2564      C2565   1.411       .  A
C2565      C2566   1.416       .  A
C2565     Br2572   1.934       .  S
C2566      C2567   1.465       .  A
C2566     Br2571   1.949       .  S
C2567      C2568   1.402       .  A
C2568     Br2569   1.925       .  S
C2573      C2574   1.396       .  A
C2573      C2578   1.412       .  A
C2573     Br2580   1.933   1_455  S
C2574      C2575   1.393       .  A
C2575      C2576   1.405       .  A
C2575     Br2582   1.932       .  S
C2576      C2577   1.442       .  A
C2576     Br2581   1.922       .  S
C2577      C2578   1.460       .  A
C2578     Br2579   1.948       .  S
C2583      C2584   1.399       .  A
C2583      C2588   1.414       .  A
C2583     Br2590   1.937       .  S
C2584      C2585   1.383       .  A
C2585      C2586   1.418       .  A
C2585     Br2592   1.928       .  S
C2586      C2587   1.459       .  A
C2586     Br2591   1.941       .  S
C2587      C2588   1.456       .  A
C2588     Br2589   1.942       .  S
C2593      C2594   1.400       .  A
C2593      C2598   1.421       .  A
C2593     Br2600   1.945       .  S
C2594      C2595   1.414       .  A
C2595      C2596   1.415       .  A
C2595     Br2602   1.936       .  S
C2596      C2597   1.443       .  A
C2596     Br2601   1.935       .  S
C2597      C2598   1.463       .  A
C2598     Br2599   1.926       .  S
C2603      C2604   1.399       .  A
C2603      C2608   1.405       .  A
C2603     Br2610   1.938       .  S
C2604      C2605   1.393       .  A
C2605      C2606   1.405       .  A
C2605     Br2612   1.938       .  S
C2606      C2607   1.451       .  A
C2606     Br2611   1.940       .  S
C2607      C2608   1.453       .  A
C2608     Br2609   1.950       .  S
C2613      C2614   1.462       .  A
C2613      C2618   1.432       .  A
C2613     Br2620   1.935       .  S
C2614      C2615   1.430       .  A
C2615      C2616   1.406       .  A
C2615     Br2622   1.929       .  S
C2616      C2617   1.385       .  A
C2616     Br2621   1.918       .  S
C2617      C2618   1.400       .  A
C2618     Br2619   1.936       .  S
C2623      C2624   1.404       .  A
C2623      C2628   1.422       .  A
C2623     Br2630   1.933       .  S
C2624      C2625   1.386       .  A
C2625      C2626   1.396       .  A
C2625     Br2632   1.946       .  S
C2626      C2627   1.465       .  A
C2626     Br2631   1.954       .  S
C2627      C2628   1.445       .  A
C2628     Br2629   1.938       .  S
C2633      C2634   1.442       .  A
C2633      C2638   1.421       .  A
C2633     Br2640   1.944       .  S
C2634      C2635   1.456       .  A
C2635      C2636   1.408       .  A
C2635     Br2642   1.941       .  S
C2636      C2637   1.398       .  A
C2636     Br2641   1.942       .  S
C2637      C2638   1.421       .  A
C2638     Br2639   1.935       .  S
C2643      C2644   1.444       .  A
C2643      C2648   1.425       .  A
C2643     Br2650   1.934       .  S
C2644      C2645   1.410       .  A
C2645      C2646   1.433       .  A
C2645     Br2652   1.930       .  S
C2646      C2647   1.441       .  A
C2646     Br2651   1.926       .  S
C2647      C2648   1.420       .  A
C2648     Br2649   1.942       .  S
C2653      C2654   1.418       .  A
C2653      C2658   1.407       .  A
C2653     Br2660   1.940       .  S
C2654      C2655   1.478       .  A
C2655      C2656   1.434       .  A
C2655     Br2662   1.953       .  S
C2656      C2657   1.401       .  A
C2656     Br2661   1.942       .  S
C2657      C2658   1.429       .  A
C2658     Br2659   1.924       .  S
C2663      C2664   1.397       .  A
C2663      C2668   1.411       .  A
C2663     Br2670   1.937       .  S
C2664      C2665   1.408       .  A
C2665      C2666   1.425       .  A
C2665     Br2672   1.930       .  S
C2666      C2667   1.433       .  A
C2666     Br2671   1.934       .  S
C2667      C2668   1.432       .  A
C2668     Br2669   1.921       .  S
C2673      C2674   1.466       .  A
C2673      C2678   1.429       .  A
C2673     Br2680   1.942       .  S
C2674      C2675   1.457       .  A
C2675      C2676   1.416       .  A
C2675     Br2682   1.947       .  S
C2676      C2677   1.400       .  A
C2676     Br2681   1.938       .  S
C2677      C2678   1.399       .  A
C2678     Br2679   1.937       .  S
C2683      C2684   1.408       .  A
C2683      C2688   1.423       .  A
C2683     Br2690   1.933   1_455  S
C2684      C2685   1.379       .  A
C2685      C2686   1.384       .  A
C2685     Br2692   1.946       .  S
C2686      C2687   1.460       .  A
C2686     Br2691   1.942       .  S
C2687      C2688   1.442       .  A
C2688     Br2689   1.940       .  S
C2693      C2694   1.414       .  A
C2693      C2698   1.417       .  A
C2693     Br2700   1.928       .  S
C2694      C2695   1.401       .  A
C2695      C2696   1.420       .  A
C2695     Br2702   1.941       .  S
C2696      C2697   1.458       .  A
C2696     Br2701   1.947       .  S
C2697      C2698   1.431       .  A
C2698     Br2699   1.924       .  S
C2703      C2704   1.389       .  A
C2703      C2708   1.402       .  A
C2703     Br2710   1.939       .  S
C2704      C2705   1.412       .  A
C2705      C2706   1.423       .  A
C2705     Br2712   1.935       .  S
C2706      C2707   1.439       .  A
C2706     Br2711   1.925       .  S
C2707      C2708   1.460       .  A
C2708     Br2709   1.953       .  S
C2713      C2714   1.418       .  A
C2713      C2718   1.417       .  A
C2713     Br2720   1.929       .  S
C2714      C2715   1.387       .  A
C2715      C2716   1.389       .  A
C2715     Br2722   1.936       .  S
C2716      C2717   1.450       .  A
C2716     Br2721   1.930       .  S
C2717      C2718   1.423       .  A
C2718     Br2719   1.943       .  S
C2723      C2724   1.394       .  A
C2723      C2728   1.408       .  A
C2723     Br2730   1.937       .  S
C2724      C2725   1.416       .  A
C2725      C2726   1.416       .  A
C2725     Br2732   1.940       .  S
C2726      C2727   1.452       .  A
C2726     Br2731   1.959       .  S
C2727      C2728   1.459       .  A
C2728     Br2729   1.944       .  S
C2733      C2734   1.386       .  A
C2733      C2738   1.407       .  A
C2733     Br2740   1.940       .  S
C2734      C2735   1.383       .  A
C2735      C2736   1.405       .  A
C2735     Br2742   1.940       .  S
C2736      C2737   1.469       .  A
C2736     Br2741   1.965       .  S
C2737      C2738   1.459       .  A
C2738     Br2739   1.942       .  S
C2743      C2744   1.433       .  A
C2743      C2748   1.432       .  A
C2743     Br2750   1.925       .  S
C2744      C2745   1.418       .  A
C2745      C2746   1.385       .  A
C2745     Br2752   1.929       .  S
C2746      C2747   1.392       .  A
C2746     Br2751   1.921       .  S
C2747      C2748   1.440       .  A
C2748     Br2749   1.924       .  S
C2753      C2754   1.385       .  A
C2753      C2758   1.400       .  A
C2753     Br2760   1.944       .  S
C2754      C2755   1.405       .  A
C2755      C2756   1.410       .  A
C2755     Br2762   1.921       .  S
C2756      C2757   1.437       .  A
C2756     Br2761   1.929       .  S
C2757      C2758   1.458       .  A
C2758     Br2759   1.934       .  S
C2763      C2764   1.462       .  A
C2763      C2768   1.418       .  A
C2763     Br2770   1.941       .  S
C2764      C2765   1.426       .  A
C2765      C2766   1.407       .  A
C2765     Br2772   1.937       .  S
C2766      C2767   1.423       .  A
C2766     Br2771   1.933       .  S
C2767      C2768   1.400       .  A
C2768     Br2769   1.941       .  S
C2773      C2774   1.392       .  A
C2773      C2778   1.410       .  A
C2773     Br2780   1.938       .  S
C2774      C2775   1.392       .  A
C2775      C2776   1.409       .  A
C2775     Br2782   1.940       .  S
C2776      C2777   1.457       .  A
C2776     Br2781   1.937       .  S
C2777      C2778   1.454       .  A
C2778     Br2779   1.925       .  S
C2783      C2784   1.407       .  A
C2783      C2788   1.413       .  A
C2783     Br2790   1.926       .  S
C2784      C2785   1.387       .  A
C2785      C2786   1.386       .  A
C2785     Br2792   1.927       .  S
C2786      C2787   1.435       .  A
C2786     Br2791   1.945       .  S
C2787      C2788   1.455       .  A
C2788     Br2789   1.948       .  S
C2793      C2794   1.453       .  A
C2793      C2798   1.412       .  A
C2793     Br2800   1.934       .  S
C2794      C2795   1.437       .  A
C2795      C2796   1.429       .  A
C2795     Br2802   1.939       .  S
C2796      C2797   1.424       .  A
C2796     Br2801   1.933       .  S
C2797      C2798   1.396       .  A
C2798     Br2799   1.932       .  S
C2803      C2804   1.477       .  A
C2803      C2808   1.401       .  A
C2803     Br2810   1.951       .  S
C2804      C2805   1.444       .  A
C2805      C2806   1.426       .  A
C2805     Br2812   1.928       .  S
C2806      C2807   1.411       .  A
C2806     Br2811   1.938       .  S
C2807      C2808   1.380       .  A
C2808     Br2809   1.943       .  S
C2813      C2814   1.413       .  A
C2813      C2818   1.418       .  A
C2813     Br2820   1.935       .  S
C2814      C2815   1.396       .  A
C2815      C2816   1.423       .  A
C2815     Br2822   1.939       .  S
C2816      C2817   1.473       .  A
C2816     Br2821   1.941       .  S
C2817      C2818   1.445       .  A
C2818     Br2819   1.939       .  S
C2823      C2824   1.405       .  A
C2823      C2828   1.401       .  A
C2823     Br2830   1.931       .  S
C2824      C2825   1.397       .  A
C2825      C2826   1.419       .  A
C2825     Br2832   1.933       .  S
C2826      C2827   1.466       .  A
C2826     Br2831   1.939       .  S
C2827      C2828   1.439       .  A
C2828     Br2829   1.943       .  S
C2833      C2834   1.397       .  A
C2833      C2838   1.408       .  A
C2833     Br2840   1.938       .  S
C2834      C2835   1.417       .  A
C2835      C2836   1.412       .  A
C2835     Br2842   1.945       .  S
C2836      C2837   1.449       .  A
C2836     Br2841   1.950       .  S
C2837      C2838   1.456       .  A
C2838     Br2839   1.941       .  S
C2843      C2844   1.399       .  A
C2843      C2848   1.391       .  A
C2843     Br2850   1.919       .  S
C2844      C2845   1.417       .  A
C2845      C2846   1.438       .  A
C2845     Br2852   1.929       .  S
C2846      C2847   1.463       .  A
C2846     Br2851   1.942       .  S
C2847      C2848   1.399       .  A
C2848     Br2849   1.928       .  S
C2853      C2854   1.448       .  A
C2853      C2858   1.409       .  A
C2853     Br2860   1.949       .  S
C2854      C2855   1.452       .  A
C2855      C2856   1.398       .  A
C2855     Br2862   1.944       .  S
C2856      C2857   1.398       .  A
C2856     Br2861   1.937       .  S
C2857      C2858   1.414       .  A
C2858     Br2859   1.942       .  S
C2863      C2864   1.450       .  A
C2863      C2868   1.431       .  A
C2863     Br2870   1.926       .  S
C2864      C2865   1.430       .  A
C2865      C2866   1.391       .  A
C2865     Br2872   1.926       .  S
C2866      C2867   1.401       .  A
C2866     Br2871   1.930       .  S
C2867      C2868   1.413       .  A
C2868     Br2869   1.930       .  S
C2873      C2874   1.440       .  A
C2873      C2878   1.418       .  A
C2873     Br2880   1.945       .  S
C2874      C2875   1.449       .  A
C2875      C2876   1.385       .  A
C2875     Br2882   1.938       .  S
C2876      C2877   1.385       .  A
C2876     Br2881   1.938       .  S
C2877      C2878   1.412       .  A
C2878     Br2879   1.932       .  S
C2883      C2884   1.392       .  A
C2883      C2888   1.382       .  A
C2883     Br2890   1.933       .  S
C2884      C2885   1.406       .  A
C2885      C2886   1.427       .  A
C2885     Br2892   1.928       .  S
C2886      C2887   1.452       .  A
C2886     Br2891   1.926       .  S
C2887      C2888   1.442       .  A
C2888     Br2889   1.920       .  S
C2893      C2894   1.434       .  A
C2893      C2898   1.400       .  A
C2893     Br2900   1.935       .  S
C2894      C2895   1.409       .  A
C2895      C2896   1.409       .  A
C2895     Br2902   1.940       .  S
C2896      C2897   1.453       .  A
C2896     Br2901   1.950       .  S
C2897      C2898   1.417       .  A
C2898     Br2899   1.944       .  S
C2903      C2904   1.400       .  A
C2903      C2908   1.420       .  A
C2903     Br2910   1.938       .  S
C2904      C2905   1.391       .  A
C2905      C2906   1.404       .  A
C2905     Br2912   1.941       .  S
C2906      C2907   1.456       .  A
C2906     Br2911   1.942       .  S
C2907      C2908   1.453       .  A
C2908     Br2909   1.931       .  S
C2913      C2914   1.455       .  A
C2913      C2918   1.414       .  A
C2913     Br2920   1.935       .  S
C2914      C2915   1.435       .  A
C2915      C2916   1.406       .  A
C2915     Br2922   1.935       .  S
C2916      C2917   1.416       .  A
C2916     Br2921   1.940       .  S
C2917      C2918   1.400       .  A
C2918     Br2919   1.939       .  S
C2923      C2924   1.415       .  A
C2923      C2928   1.424       .  A
C2923     Br2930   1.934       .  S
C2924      C2925   1.393       .  A
C2925      C2926   1.407       .  A
C2925     Br2932   1.940       .  S
C2926      C2927   1.450       .  A
C2926     Br2931   1.944       .  S
C2927      C2928   1.430       .  A
C2928     Br2929   1.914       .  S
C2933      C2934   1.437       .  A
C2933      C2938   1.431       .  A
C2933     Br2940   1.938       .  S
C2934      C2935   1.412       .  A
C2935      C2936   1.396       .  A
C2935     Br2942   1.942       .  S
C2936      C2937   1.439       .  A
C2936     Br2941   1.945       .  S
C2937      C2938   1.433       .  A
C2938     Br2939   1.948       .  S
C2943      C2944   1.399       .  A
C2943      C2948   1.388       .  A
C2943     Br2950   1.931       .  S
C2944      C2945   1.435       .  A
C2945      C2946   1.433       .  A
C2945     Br2952   1.935       .  S
C2946      C2947   1.434       .  A
C2946     Br2951   1.942       .  S
C2947      C2948   1.438       .  A
C2948     Br2949   1.937       .  S
C2953      C2954   1.446       .  A
C2953      C2958   1.411       .  A
C2953     Br2960   1.947       .  S
C2954      C2955   1.460       .  A
C2955      C2956   1.405       .  A
C2955     Br2962   1.936       .  S
C2956      C2957   1.389       .  A
C2956     Br2961   1.949       .  S
C2957      C2958   1.399       .  A
C2958     Br2959   1.918       .  S
C2963      C2964   1.444       .  A
C2963      C2968   1.415       .  A
C2963     Br2970   1.938       .  S
C2964      C2965   1.451       .  A
C2965      C2966   1.383       .  A
C2965     Br2972   1.952       .  S
C2966      C2967   1.391       .  A
C2966     Br2971   1.937       .  S
C2967      C2968   1.418       .  A
C2968     Br2969   1.948       .  S
C2973      C2974   1.402       .  A
C2973      C2978   1.400       .  A
C2973     Br2980   1.923       .  S
C2974      C2975   1.445       .  A
C2975      C2976   1.435       .  A
C2975     Br2982   1.934       .  S
C2976      C2977   1.409       .  A
C2976     Br2981   1.917       .  S
C2977      C2978   1.410       .  A
C2978     Br2979   1.922       .  S
C2983      C2984   1.450       .  A
C2983      C2988   1.409       .  A
C2983     Br2990   1.942       .  S
C2984      C2985   1.432       .  A
C2985      C2986   1.394       .  A
C2985     Br2992   1.935       .  S
C2986      C2987   1.393       .  A
C2986     Br2991   1.935       .  S
C2987      C2988   1.396       .  A
C2988     Br2989   1.939       .  S
C2993      C2994   1.425       .  A
C2993      C2998   1.396       .  A
C2993     Br3000   1.931       .  S
C2994      C2995   1.446       .  A
C2995      C2996   1.446       .  A
C2995     Br3002   1.926       .  S
C2996      C2997   1.420       .  A
C2996     Br3001   1.919       .  S
C2997      C2998   1.411       .  A
C2998     Br2999   1.916       .  S
C3003      C3004   1.424       .  A
C3003      C3008   1.408       .  A
C3003     Br3010   1.925       .  S
C3004      C3005   1.445       .  A
C3005      C3006   1.408       .  A
C3005     Br3012   1.935       .  S
C3006      C3007   1.402       .  A
C3006     Br3011   1.943       .  S
C3007      C3008   1.413       .  A
C3008     Br3009   1.934       .  S
C3013      C3014   1.453       .  A
C3013      C3018   1.416       .  A
C3013     Br3020   1.952       .  S
C3014      C3015   1.453       .  A
C3015      C3016   1.421       .  A
C3015     Br3022   1.948       .  S
C3016      C3017   1.418       .  A
C3016     Br3021   1.952       .  S
C3017      C3018   1.405       .  A
C3018     Br3019   1.934       .  S
C3023      C3024   1.463       .  A
C3023      C3028   1.425       .  A
C3023     Br3030   1.952       .  S
C3024      C3025   1.418       .  A
C3025      C3026   1.402       .  A
C3025     Br3032   1.935       .  S
C3026      C3027   1.421       .  A
C3026     Br3031   1.925       .  S
C3027      C3028   1.413       .  A
C3028     Br3029   1.935       .  S
C3033      C3034   1.393       .  A
C3033      C3038   1.390       .  A
C3033     Br3040   1.896       .  S
C3034      C3035   1.418       .  A
C3035      C3036   1.415       .  A
C3035     Br3042   1.937       .  S
C3036      C3037   1.443       .  A
C3036     Br3041   1.945       .  S
C3037      C3038   1.436       .  A
C3038     Br3039   1.939       .  S
C3043      C3044   1.403       .  A
C3043      C3048   1.431       .  A
C3043     Br3050   1.947       .  S
C3044      C3045   1.410       .  A
C3045      C3046   1.428       .  A
C3045     Br3052   1.939       .  S
C3046      C3047   1.469       .  A
C3046     Br3051   1.963       .  S
C3047      C3048   1.462       .  A
C3048     Br3049   1.930       .  S
C3053      C3054   1.402       .  A
C3053      C3058   1.406       .  A
C3053     Br3060   1.936       .  S
C3054      C3055   1.409       .  A
C3055      C3056   1.416       .  A
C3055     Br3062   1.948       .  S
C3056      C3057   1.448       .  A
C3056     Br3061   1.922       .  S
C3057      C3058   1.451       .  A
C3058     Br3059   1.929       .  S
C3063      C3064   1.451       .  A
C3063      C3068   1.421       .  A
C3063     Br3070   1.928       .  S
C3064      C3065   1.434       .  A
C3065      C3066   1.419       .  A
C3065     Br3072   1.944       .  S
C3066      C3067   1.432       .  A
C3066     Br3071   1.940       .  S
C3067      C3068   1.405       .  A
C3068     Br3069   1.934       .  S
C3073      C3074   1.436       .  A
C3073      C3078   1.419       .  A
C3073     Br3080   1.922       .  S
C3074      C3075   1.445       .  A
C3075      C3076   1.395       .  A
C3075     Br3082   1.933       .  S
C3076      C3077   1.389       .  A
C3076     Br3081   1.935       .  S
C3077      C3078   1.418       .  A
C3078     Br3079   1.938       .  S
C3083      C3084   1.414       .  A
C3083      C3088   1.423       .  A
C3083     Br3090   1.931       .  S
C3084      C3085   1.388       .  A
C3085      C3086   1.410       .  A
C3085     Br3092   1.938       .  S
C3086      C3087   1.464       .  A
C3086     Br3091   1.949       .  S
C3087      C3088   1.427       .  A
C3088     Br3089   1.924       .  S
C3093      C3094   1.433       .  A
C3093      C3098   1.398       .  A
C3093     Br3100   1.928       .  S
C3094      C3095   1.464       .  A
C3095      C3096   1.411       .  A
C3095     Br3102   1.938       .  S
C3096      C3097   1.396       .  A
C3096     Br3101   1.947       .  S
C3097      C3098   1.409       .  A
C3098     Br3099   1.938       .  S
C3103      C3104   1.413       .  A
C3103      C3108   1.422       .  A
C3103     Br3110   1.916       .  S
C3104      C3105   1.418       .  A
C3105      C3106   1.424       .  A
C3105     Br3112   1.939       .  S
C3106      C3107   1.439       .  A
C3106     Br3111   1.927       .  S
C3107      C3108   1.436       .  A
C3108     Br3109   1.932       .  S
C3113      C3114   1.398   1_655  A
C3113      C3118   1.410   1_655  A
C3113     Br3120   1.935       .  S
C3114      C3115   1.415       .  A
C3115      C3116   1.432       .  A
C3115     Br3122   1.926       .  S
C3116      C3117   1.439       .  A
C3116     Br3121   1.924       .  S
C3117      C3118   1.451       .  A
C3118     Br3119   1.948   1_455  S
C3123      C3124   1.394       .  A
C3123      C3128   1.402       .  A
C3123     Br3130   1.934       .  S
C3124      C3125   1.395       .  A
C3125      C3126   1.420       .  A
C3125     Br3132   1.930       .  S
C3126      C3127   1.453       .  A
C3126     Br3131   1.922       .  S
C3127      C3128   1.450       .  A
C3128     Br3129   1.931       .  S
C3133      C3134   1.396       .  A
C3133      C3138   1.409       .  A
C3133     Br3140   1.928       .  S
C3134      C3135   1.403       .  A
C3135      C3136   1.403       .  A
C3135     Br3142   1.944   1_545  S
C3136      C3137   1.452       .  A
C3136     Br3141   1.952       .  S
C3137      C3138   1.451       .  A
C3138     Br3139   1.924       .  S
C3143      C3144   1.421       .  A
C3143      C3148   1.428       .  A
C3143     Br3150   1.946       .  S
C3144      C3145   1.412       .  A
C3145      C3146   1.405       .  A
C3145     Br3152   1.949   1_554  S
C3146      C3147   1.439       .  A
C3146     Br3151   1.928       .  S
C3147      C3148   1.450       .  A
C3148     Br3149   1.932       .  S
C3153      C3154   1.394       .  A
C3153      C3158   1.402       .  A
C3153     Br3160   1.952   1_455  S
C3154      C3155   1.405       .  A
C3155      C3156   1.418       .  A
C3155     Br3162   1.931   1_565  S
C3156      C3157   1.447       .  A
C3156     Br3161   1.927       .  S
C3157      C3158   1.463       .  A
C3158     Br3159   1.938       .  S
C3163      C3164   1.399       .  A
C3163      C3168   1.403       .  A
C3163     Br3170   1.936       .  S
C3164      C3165   1.402       .  A
C3165      C3166   1.419       .  A
C3165     Br3172   1.928       .  S
C3166      C3167   1.438       .  A
C3166     Br3171   1.936       .  S
C3167      C3168   1.450       .  A
C3168     Br3169   1.946       .  S
C3173      C3174   1.395       .  A
C3173      C3178   1.403       .  A
C3173     Br3180   1.935   1_554  S
C3174      C3175   1.406       .  A
C3175      C3176   1.430       .  A
C3175     Br3182   1.929       .  S
C3176      C3177   1.447       .  A
C3176     Br3181   1.916       .  S
C3177      C3178   1.450       .  A
C3178     Br3179   1.943       .  S
C3183      C3184   1.398       .  A
C3183      C3188   1.412       .  A
C3183     Br3190   1.937       .  S
C3184      C3185   1.400       .  A
C3185      C3186   1.423       .  A
C3185     Br3192   1.935       .  S
C3186      C3187   1.438       .  A
C3186     Br3191   1.906       .  S
C3187      C3188   1.457       .  A
C3188     Br3189   1.951       .  S
C3193      C3194   1.399       .  A
C3193      C3198   1.412       .  A
C3193     Br3200   1.936       .  S
C3194      C3195   1.416       .  A
C3195      C3196   1.403       .  A
C3195     Br3202   1.953       .  S
C3196      C3197   1.451       .  A
C3196     Br3201   1.959       .  S
C3197      C3198   1.453       .  A
C3198     Br3199   1.943       .  S
C3203      C3204   1.414       .  A
C3203      C3208   1.416       .  A
C3203     Br3210   1.930       .  S
C3204      C3205   1.396       .  A
C3205      C3206   1.401       .  A
C3205     Br3212   1.940       .  S
C3206      C3207   1.443       .  A
C3206     Br3211   1.925       .  S
C3207      C3208   1.435       .  A
C3208     Br3209   1.931       .  S
C3213      C3214   1.400       .  A
C3213      C3218   1.437       .  A
C3213     Br3220   1.937       .  S
C3214      C3215   1.407       .  A
C3215      C3216   1.421       .  A
C3215     Br3222   1.939       .  S
C3216      C3217   1.455       .  A
C3216     Br3221   1.946       .  S
C3217      C3218   1.469       .  A
C3218     Br3219   1.938       .  S
C3223      C3224   1.397       .  A
C3223      C3228   1.413       .  A
C3223     Br3230   1.934       .  S
C3224      C3225   1.418       .  A
C3225      C3226   1.425       .  A
C3225     Br3232   1.938       .  S
C3226      C3227   1.428       .  A
C3226     Br3231   1.914       .  S
C3227      C3228   1.448       .  A
C3228     Br3229   1.944       .  S
C3233      C3234   1.418       .  A
C3233      C3238   1.406       .  A
C3233     Br3240   1.931       .  S
C3234      C3235   1.400       .  A
C3235      C3236   1.428       .  A
C3235     Br3242   1.937       .  S
C3236      C3237   1.463       .  A
C3236     Br3241   1.922       .  S
C3237      C3238   1.436       .  A
C3238     Br3239   1.939       .  S
C3243      C3244   1.466       .  A
C3243      C3248   1.421       .  A
C3243     Br3250   1.948       .  S
C3244      C3245   1.437       .  A
C3245      C3246   1.411       .  A
C3245     Br3252   1.919       .  S
C3246      C3247   1.406       .  A
C3246     Br3251   1.939       .  S
C3247      C3248   1.401       .  A
C3248     Br3249   1.931       .  S
C3253      C3254   1.385       .  A
C3253      C3258   1.395       .  A
C3253     Br3260   1.938       .  S
C3254      C3255   1.413       .  A
C3255      C3256   1.408       .  A
C3255     Br3262   1.936       .  S
C3256      C3257   1.423       .  A
C3256     Br3261   1.926       .  S
C3257      C3258   1.461       .  A
C3258     Br3259   1.949       .  S
C3263      C3264   1.403       .  A
C3263      C3268   1.401       .  A
C3263     Br3270   1.932       .  S
C3264      C3265   1.394       .  A
C3265      C3266   1.416       .  A
C3265     Br3272   1.948       .  S
C3266      C3267   1.456       .  A
C3266     Br3271   1.924       .  S
C3267      C3268   1.455       .  A
C3268     Br3269   1.980       .  S
C3273      C3274   1.412       .  A
C3273      C3278   1.406       .  A
C3273     Br3280   1.929       .  S
C3274      C3275   1.394       .  A
C3275      C3276   1.418       .  A
C3275     Br3282   1.934       .  S
C3276      C3277   1.467       .  A
C3276     Br3281   1.938       .  S
C3277      C3278   1.440       .  A
C3278     Br3279   1.946       .  S
C3283      C3284   1.389       .  A
C3283      C3288   1.414       .  A
C3283     Br3290   1.938       .  S
C3284      C3285   1.390       .  A
C3285      C3286   1.412       .  A
C3285     Br3292   1.931       .  S
C3286      C3287   1.458       .  A
C3286     Br3291   1.940       .  S
C3287      C3288   1.454       .  A
C3288     Br3289   1.940       .  S
C3293      C3294   1.399       .  A
C3293      C3298   1.408       .  A
C3293     Br3300   1.933       .  S
C3294      C3295   1.403       .  A
C3295      C3296   1.410       .  A
C3295     Br3302   1.919       .  S
C3296      C3297   1.426       .  A
C3296     Br3301   1.940       .  S
C3297      C3298   1.430       .  A
C3298     Br3299   1.939       .  S
C3303      C3304   1.383       .  A
C3303      C3308   1.396       .  A
C3303     Br3310   1.946       .  S
C3304      C3305   1.400       .  A
C3305      C3306   1.412       .  A
C3305     Br3312   1.931       .  S
C3306      C3307   1.437       .  A
C3306     Br3311   1.921       .  S
C3307      C3308   1.465       .  A
C3308     Br3309   1.944       .  S
