geometry optimzed in LAMMPS
_audit_creation_date              2020-11-30 
_audit_creation_method            'lammps2cif' 
_symmetry_space_group_name_H-M    'P1' 
_symmetry_Int_Tables_number       1 
_symmetry_cell_setting            triclinic 
loop_ 
_symmetry_equiv_pos_as_xyz 
  x,y,z 
_cell_length_a                    39.59615350860838 
_cell_length_b                    39.5940544128794 
_cell_length_c                    39.59186828212668 
_cell_angle_alpha                 90.16458868319783 
_cell_angle_beta                  90.16436191770075 
_cell_angle_gamma                 90.1642674252165 
loop_ 
_atom_site_label 
_atom_site_type_symbol 
_atom_site_fract_x 
_atom_site_fract_y 
_atom_site_fract_z 
_atom_site_charge 
C1          C  0.65588455  0.69845915  0.93958106     0.06510
C2          C  0.67426202  0.71752722  0.91610175    -0.09640
C3          C  0.70515238  0.70507252  0.90383758     0.04010
C4          C  0.71762103  0.67419254  0.91611709    -0.08170
C5          C  0.69855738  0.65581065  0.93959651     0.06500
C6          C  0.66747254  0.66738364  0.95011680    -0.07590
H7          H  0.66516331  0.74206273  0.90826250     0.12100
H8          H  0.74216352  0.66510508  0.90828866     0.09620
H9          H  0.65363504  0.65354359  0.96931686     0.09470
C10         C  0.87359039  0.70506899  0.73537003     0.06510
C11         C  0.88587035  0.71753686  0.70448835    -0.09640
C12         C  0.90935470  0.69847549  0.68611159     0.04010
C13         C  0.91987875  0.66739294  0.69769067    -0.08170
C14         C  0.90934267  0.65580586  0.72876772     0.06500
C15         C  0.88585815  0.67418092  0.74783051    -0.07590
H16         H  0.87803733  0.74207908  0.69539481     0.12100
H17         H  0.93908195  0.65355765  0.68385475     0.09620
H18         H  0.87801614  0.66508111  0.77236880     0.09470
C19         C  0.70513992  0.87351575  0.73536432     0.06510
C20         C  0.67424495  0.88577184  0.74781611    -0.09640
C21         C  0.65586728  0.90925069  0.72874802     0.04010
C22         C  0.66745881  0.91979204  0.69767420    -0.08170
C23         C  0.69854802  0.90928072  0.68610508     0.06500
C24         C  0.71761219  0.88580272  0.70448740    -0.07590
H25         H  0.66514257  0.87792683  0.77235097     0.12100
H26         H  0.65362111  0.93899141  0.68383433     0.09620
H27         H  0.74215888  0.87798079  0.69540252     0.09470
C28         C  0.74298838  0.78663812  0.81694169     0.05670
C29         C  0.75719715  0.75712539  0.83110195     0.05670
C30         C  0.78670889  0.74291608  0.81694273     0.05670
C31         C  0.80086255  0.75712072  0.78742458     0.05670
C32         C  0.78670618  0.78663413  0.77321546     0.05670
C33         C  0.75719405  0.80079249  0.78742388     0.05670
C34         C  0.38806168  0.34531657  0.93951769     0.06510
C35         C  0.37661755  0.37653230  0.94996762    -0.09640
C36         C  0.34541070  0.38799142  0.93951222     0.04010
C37         C  0.32599129  0.36924598  0.91644377    -0.08170
C38         C  0.33829624  0.33822226  0.90439489     0.06500
C39         C  0.36931079  0.32590287  0.91644886    -0.07590
H40         H  0.39072385  0.39063477  0.96895640     0.12100
H41         H  0.30130884  0.37814780  0.90878322     0.09620
H42         H  0.37820149  0.30121411  0.90879129     0.09470
C43         C  0.90934686  0.38791559  0.37554255     0.06510
C44         C  0.91979481  0.37646435  0.40675765    -0.09640
C45         C  0.90935140  0.34524766  0.41820439     0.04010
C46         C  0.88629601  0.32582484  0.39944860    -0.08170
C47         C  0.87424821  0.33813607  0.36842619     0.06500
C48         C  0.88629041  0.36916125  0.35611816    -0.07590
H49         H  0.93877437  0.39057332  0.42086839     0.12100
H50         H  0.87864474  0.30113490  0.40834148     0.09620
H51         H  0.87863369  0.37805776  0.33142979     0.09470
C52         C  0.38803453  0.90923773  0.37556876     0.06510
C53         C  0.36928265  0.88617551  0.35614797    -0.09640
C54         C  0.33825282  0.87414386  0.36845163     0.04010
C55         C  0.32593522  0.88620733  0.39946528    -0.08170
C56         C  0.34535573  0.90926758  0.41821768     0.06500
C57         C  0.37657595  0.91970153  0.40677607    -0.07590
H58         H  0.37818472  0.87850644  0.33146555     0.12100
H59         H  0.30124268  0.87856376  0.40835399     0.09620
H60         H  0.39068334  0.93868502  0.42088380     0.09470
C61         C  0.83972533  0.83961423  0.40523432     0.06510
C62         C  0.82724367  0.87058480  0.41823982    -0.09640
C63         C  0.84571663  0.88863154  0.44313315     0.04010
C64         C  0.87625901  0.87614692  0.45477150    -0.08170
C65         C  0.88874664  0.84560755  0.44312453     0.06500
C66         C  0.87069947  0.82713506  0.41823081    -0.07590
H67         H  0.80327443  0.88029104  0.40944301     0.12100
H68         H  0.88984711  0.88973466  0.47446837     0.09620
H69         H  0.88040804  0.80316801  0.40942703     0.09470
C70         C  0.88813550  0.84534838  0.66437174     0.06510
C71         C  0.86964633  0.82619218  0.68775230    -0.09640
C72         C  0.83867363  0.83858107  0.69998187     0.04010
C73         C  0.82628508  0.86954833  0.68773655    -0.08170
C74         C  0.84544611  0.88803326  0.66435753     0.06500
C75         C  0.87649697  0.87639561  0.65380050    -0.07590
H76         H  0.87880319  0.80169738  0.69565048     0.12100
H77         H  0.80178784  0.87870376  0.69562140     0.09620
H78         H  0.89042640  0.89032189  0.63473057     0.09470
C79         C  0.83974402  0.37494043  0.86990224     0.06510
C80         C  0.82726259  0.38794950  0.90087324    -0.09640
C81         C  0.84573667  0.41284234  0.91891937     0.04010
C82         C  0.87628024  0.42447648  0.90643329    -0.08170
C83         C  0.88876822  0.41282592  0.87589371     0.06500
C84         C  0.87071969  0.38793278  0.85742224    -0.07590
H85         H  0.80329275  0.37915553  0.91058043     0.12100
H86         H  0.88986940  0.44417246  0.92002012     0.09620
H87         H  0.88042851  0.37912618  0.83345496     0.09470
C88         C  0.88814293  0.63407101  0.87564403     0.06510
C89         C  0.86965240  0.65745286  0.85649068    -0.09640
C90         C  0.83868286  0.66968455  0.86888620     0.04010
C91         C  0.82629853  0.65743966  0.89985683    -0.08170
C92         C  0.84546109  0.63405999  0.91833892     0.06500
C93         C  0.87650913  0.62350133  0.90669511    -0.07590
H94         H  0.87880567  0.66535048  0.83199291     0.12100
H95         H  0.80180402  0.66532470  0.90901638     0.09620
H96         H  0.89043936  0.60443098  0.92061944     0.09470
C97         C  0.15025170  0.84109672  0.43431513     0.06510
C98         C  0.16220254  0.86939177  0.45124946    -0.09640
C99         C  0.19466101  0.88106390  0.44549393     0.04010
C100        C  0.21561174  0.86461933  0.42205961    -0.08170
C101        C  0.20348159  0.83601646  0.40457575     0.06500
C102        C  0.17062807  0.82418646  0.41089210    -0.07590
H103        H  0.14649349  0.88174317  0.46999211     0.12100
H104        H  0.24105631  0.87370477  0.41780577     0.09620
H105        H  0.16118177  0.80186923  0.39805082     0.09470
C106        C  0.19804502  0.89027932  0.66113610     0.06510
C107        C  0.21613476  0.87199637  0.68596472    -0.09640
C108        C  0.20460637  0.83967925  0.69641510     0.04010
C109        C  0.17513887  0.82619964  0.68106182    -0.08170
C110        C  0.15754549  0.84500620  0.65641239     0.06500
C111        C  0.16888842  0.87674991  0.64723886    -0.07590
H112        H  0.23900928  0.88258420  0.69669508     0.12100
H113        H  0.16623350  0.80128997  0.68792522     0.09620
H114        H  0.15557394  0.89058076  0.62765550     0.09470
O115        O  0.94659227  0.78295010  0.58609822    -0.76760
O116        O  0.07272409  0.80119385  0.51195469    -0.76780
O117        O  0.05525106  0.82442233  0.58862254    -0.76790
O118        O  0.99240678  0.81753993  0.50861092    -0.76730
O119        O  0.09305270  0.78676279  0.57616032    -0.76850
O120        O  0.94973561  0.78262554  0.51842955    -0.76770
O121        O  0.04126310  0.79448681  0.46572037    -0.76760
O122        O  0.98490619  0.82299892  0.59263809    -0.76800
C123        C  0.95564950  0.81138816  0.59767576     1.12930
C124        C  0.06779442  0.80521142  0.47979713     1.12820
C125        C  0.08517665  0.81376368  0.59082133     1.12950
C126        C  0.96152986  0.80919541  0.50494413     1.12830
O127        O  0.98048595  0.71680215  0.51942566    -0.76760
O128        O  0.06395385  0.72328599  0.57902503    -0.76840
O129        O  0.98897305  0.76016236  0.62705270    -0.76770
O130        O  0.05599306  0.73719224  0.49811281    -0.76750
O131        O  0.10425055  0.74337656  0.52642660    -0.76800
O132        O  0.98037265  0.71973280  0.58953853    -0.76770
O133        O  0.99172356  0.75356632  0.48054624    -0.76730
O134        O  0.05644998  0.75965120  0.62098724    -0.76800
Co135      Co  0.96767555  0.75085921  0.55348171     1.51530
Co136      Co  0.06399458  0.76016674  0.54496720     1.51690
Co137      Co  0.02115300  0.79141282  0.60393567     1.51570
Co138      Co  0.02499889  0.77953744  0.50750379     1.51470
O139        O  0.01566745  0.77062272  0.55654737    -1.38690
C140        C  0.97693865  0.72706845  0.48953291     1.12860
C141        C  0.06882737  0.73243891  0.60954640     1.12950
C142        C  0.97656280  0.73180719  0.61876677     1.12890
C143        C  0.08826020  0.73244383  0.50099293     1.12860
C144        C  0.38610319  0.69849109  0.94288260     0.06510
C145        C  0.36775924  0.71745818  0.91894346    -0.09640
C146        C  0.33608331  0.70556105  0.90711659     0.04010
C147        C  0.32311773  0.67497976  0.92041072    -0.08170
C148        C  0.34201155  0.65668521  0.94446958     0.06500
C149        C  0.37331384  0.66830479  0.95477804    -0.07590
H150        H  0.37777141  0.74124522  0.90997281     0.12100
H151        H  0.29858966  0.66576412  0.91244832     0.09620
H152        H  0.38726918  0.65441482  0.97388324     0.09470
C153        C  0.34200912  0.91419455  0.68692475     0.06510
C154        C  0.32311598  0.89013595  0.70522044    -0.09640
C155        C  0.33608152  0.87684299  0.73580412     0.04010
C156        C  0.36775682  0.88867047  0.74770222    -0.08170
C157        C  0.38610041  0.91260889  0.72873453     0.06500
C158        C  0.37331108  0.92450344  0.69854602    -0.07590
H159        H  0.29858842  0.88217326  0.69600414     0.12100
H160        H  0.37776873  0.87970105  0.77149140     0.09620
H161        H  0.38726599  0.94360799  0.68465583     0.09470
C162        C  0.25456563  0.78684344  0.77286124     0.05670
C163        C  0.28431328  0.80150460  0.78764632     0.05670
C164        C  0.29854287  0.78754856  0.81780909     0.05670
C165        C  0.28431272  0.75738970  0.83177043     0.05670
C166        C  0.25456558  0.74260230  0.81711034     0.05670
C167        C  0.24041734  0.75651966  0.78678334     0.05670
C168        C  0.16598926  0.70298676  0.73326389     0.06510
C169        C  0.15342898  0.71516455  0.70198976    -0.09640
C170        C  0.12942039  0.69611142  0.68334391     0.04010
C171        C  0.11820125  0.66529442  0.69557624    -0.08170
C172        C  0.12942334  0.65306567  0.72639512     0.06500
C173        C  0.15343273  0.67171377  0.74544584    -0.07590
H174        H  0.16186949  0.73935327  0.69250966     0.12100
H175        H  0.09915331  0.65125246  0.68153563     0.09620
H176        H  0.16187685  0.66223622  0.76963561     0.09470
O177        O  0.98037058  0.55924294  0.75001531    -0.76760
O178        O  0.10426558  0.49615607  0.77365322    -0.76780
O179        O  0.05644681  0.59070555  0.78993080    -0.76790
O180        O  0.99174458  0.45025797  0.78384033    -0.76730
O181        O  0.06396176  0.54874703  0.75356463    -0.76850
O182        O  0.98049591  0.48913703  0.74708023    -0.76770
O183        O  0.05601138  0.46783993  0.76746240    -0.76760
O184        O  0.98896651  0.59675616  0.79044636    -0.76800
C185        C  0.97655404  0.58846785  0.76209142     1.12930
C186        C  0.08827855  0.47072355  0.76271564     1.12820
C187        C  0.06883018  0.57926732  0.76271899     1.12950
C188        C  0.97695328  0.45924484  0.75734472     1.12830
O189        O  0.94975149  0.48812979  0.81291008    -0.76760
O190        O  0.09306152  0.54588491  0.81704319    -0.76840
O191        O  0.98491265  0.56234245  0.85328648    -0.76770
O192        O  0.04129220  0.43543872  0.82475675    -0.76750
O193        O  0.07274130  0.48167714  0.83147284    -0.76800
O194        O  0.94659583  0.55579487  0.81323962    -0.76770
O195        O  0.99242765  0.47831263  0.84782046    -0.76730
O196        O  0.05525953  0.55834420  0.85470493    -0.76800
Co197      Co  0.96768276  0.52318554  0.78114319     1.51530
Co198      Co  0.06400696  0.51468911  0.79044615     1.51690
Co199      Co  0.02115469  0.57364727  0.82169567     1.51570
Co200      Co  0.02501759  0.47721818  0.80981277     1.51470
O201        O  0.01567671  0.52625957  0.80090416    -1.38690
C202        C  0.96155023  0.47464282  0.83947819     1.12860
C203        C  0.08518395  0.56054874  0.84404316     1.12950
C204        C  0.95565397  0.56737496  0.84167774     1.12890
C205        C  0.06782048  0.44951915  0.83548381     1.12860
C206        C  0.15029791  0.40405814  0.87134645     0.06510
C207        C  0.16225470  0.42099930  0.89963601    -0.09640
C208        C  0.19471758  0.41525145  0.91130026     0.04010
C209        C  0.21566748  0.39181953  0.89485278    -0.08170
C210        C  0.20353203  0.37432987  0.86625499     0.06500
C211        C  0.17067353  0.38063714  0.85443321    -0.07590
H212        H  0.14654589  0.43973969  0.91199006     0.12100
H213        H  0.24111531  0.38757133  0.90393246     0.09620
H214        H  0.16122261  0.36779021  0.83212014     0.09470
C215        C  0.19805074  0.63087047  0.92054299     0.06510
C216        C  0.21613778  0.65570064  0.90226058    -0.09640
C217        C  0.20460559  0.66615561  0.86994478     0.04010
C218        C  0.17513607  0.65080474  0.85646572    -0.08170
C219        C  0.15754528  0.62615295  0.87527174     0.06500
C220        C  0.16889263  0.61697571  0.90701450    -0.07590
H221        H  0.23901373  0.66642888  0.91284797     0.12100
H222        H  0.16622723  0.65767176  0.83155681     0.09620
H223        H  0.15558060  0.59739122  0.92084498     0.09470
C224        C  0.37502392  0.83966436  0.86992365     0.06510
C225        C  0.38802234  0.87063847  0.85744252    -0.09640
C226        C  0.41292105  0.88868205  0.87591083     0.04010
C227        C  0.42457221  0.87618938  0.90644893    -0.08170
C228        C  0.41293095  0.84564734  0.91893742     0.06500
C229        C  0.38803191  0.82717937  0.90089380    -0.07590
H230        H  0.37921570  0.88035008  0.83347632     0.12100
H231        H  0.44427190  0.88977421  0.92003344     0.09620
H232        H  0.37923201  0.80321097  0.91060246     0.09470
C233        C  0.63411880  0.88805268  0.87563585     0.06510
C234        C  0.65750700  0.86956798  0.85648485    -0.09640
C235        C  0.66974370  0.83859896  0.86888026     0.04010
C236        C  0.65749834  0.82620950  0.89984899    -0.08170
C237        C  0.63411178  0.84536616  0.91832867     0.06500
C238        C  0.62354596  0.87641287  0.90668369    -0.07590
H239        H  0.66540612  0.87872515  0.83199045     0.12100
H240        H  0.66538919  0.80171621  0.90900919     0.09620
H241        H  0.60447164  0.89033884  0.92060624     0.09470
C242        C  0.13687516  0.65333111  0.37521805     0.06510
C243        C  0.12473527  0.66537831  0.40585385    -0.09640
C244        C  0.13522195  0.69666761  0.41799787     0.04010
C245        C  0.15793960  0.71643305  0.39935389    -0.08170
C246        C  0.17015406  0.70448174  0.36826686     0.06500
C247        C  0.15958744  0.67274490  0.35622208    -0.07590
H248        H  0.10674602  0.65048370  0.42014694     0.12100
H249        H  0.16600190  0.74081324  0.40893806     0.09620
H250        H  0.16891468  0.66325431  0.33233500     0.09470
C251        C  0.24287862  0.75712655  0.31676448     0.05670
C252        C  0.25698707  0.78680698  0.33087570     0.05670
C253        C  0.28632170  0.80113637  0.31653988     0.05670
C254        C  0.30064930  0.78681394  0.28719582     0.05670
C255        C  0.28653958  0.75713477  0.27308414     0.05670
C256        C  0.25713860  0.74282400  0.28735272     0.05670
C257        C  0.33803745  0.70450337  0.20034586     0.06510
C258        C  0.32599592  0.67276593  0.18977929    -0.09640
C259        C  0.34499624  0.65334715  0.16707468     0.04010
C260        C  0.37563297  0.66539073  0.15494064    -0.08170
C261        C  0.38777373  0.69668128  0.16542745     0.06500
C262        C  0.36912537  0.71645146  0.18813829    -0.07590
H263        H  0.30210879  0.66327778  0.19910227     0.12100
H264        H  0.38992988  0.65049188  0.13695698     0.09620
H265        H  0.37870762  0.74083173  0.19620192     0.09470
O266        O  0.25854615  0.48925196  0.97599986    -0.76760
O267        O  0.23920119  0.55777489  0.10495181    -0.76780
O268        O  0.21746866  0.48181712  0.08450412    -0.76790
O269        O  0.22333580  0.56504728  0.02458527    -0.76730
O270        O  0.25517563  0.49377852  0.12276452    -0.76850
O271        O  0.25858692  0.55653584  0.98202355    -0.76770
O272        O  0.24528250  0.60572000  0.07638943    -0.76760
O273        O  0.21834770  0.48034470  0.01362396    -0.76800
C274        C  0.22969929  0.47791869  0.98388865     1.12930
C275        C  0.23436286  0.58996347  0.10181520     1.12820
C276        C  0.22848680  0.47878289  0.11430208     1.12950
C277        C  0.23203281  0.56977610  0.99400256     1.12830
O278        O  0.32400559  0.55512854  0.01347180    -0.76760
O279        O  0.31847512  0.49306392  0.09384841    -0.76840
O280        O  0.28164971  0.44700827  0.01653017    -0.76770
O281        O  0.30333943  0.57377146  0.08907667    -0.76750
O282        O  0.29758781  0.54398093  0.13620543    -0.76800
O283        O  0.32196466  0.48498595  0.01018195    -0.76770
O284        O  0.28705065  0.59354723  0.02581632    -0.76730
O285        O  0.28286060  0.45075567  0.08433210    -0.76800
Co286      Co  0.29048921  0.52116772  0.99878272     1.51530
Co287      Co  0.28099161  0.52637718  0.09509746     1.51690
Co288      Co  0.25045736  0.46847012  0.04963129     1.51570
Co289      Co  0.26111282  0.56507148  0.05769094     1.51470
O290        O  0.27052221  0.51636357  0.04628816    -1.38690
C291        C  0.31348505  0.58503086  0.01066070     1.12860
C292        C  0.30973777  0.46229664  0.09765331     1.12950
C293        C  0.31021930  0.45576925  0.00526028     1.12890
C294        C  0.30825553  0.56998350  0.12118702     1.12860
O295        O  0.98000111  0.48492397  0.35214615    -0.76760
O296        O  0.10600884  0.54397600  0.32779219    -0.76780
O297        O  0.05417338  0.45073633  0.31304137    -0.76790
O298        O  0.99560960  0.59350803  0.31728635    -0.76730
O299        O  0.06367590  0.49303942  0.34866914    -0.76850
O300        O  0.98326029  0.55506747  0.35421983    -0.76770
O301        O  0.05887377  0.57374028  0.33357580    -0.76760
O302        O  0.98637885  0.44696141  0.31181774    -0.76800
C303        C  0.97509337  0.45570986  0.34038732     1.12930
C304        C  0.09098480  0.56996730  0.33847747     1.12820
C305        C  0.06749185  0.46227606  0.33992247     1.12950
C306        C  0.98044487  0.58497434  0.34371194     1.12830
O307        O  0.95183863  0.55649310  0.28878492    -0.76760
O308        O  0.09259018  0.49378170  0.28536515    -0.76840
O309        O  0.98347168  0.48031481  0.24851937    -0.76770
O310        O  0.04618331  0.60571718  0.27553083    -0.76750
O311        O  0.07474706  0.55777997  0.26940788    -0.76800
O312        O  0.94583939  0.48920083  0.28871438    -0.76770
O313        O  0.99440423  0.56504061  0.25354982    -0.76730
O314        O  0.05434125  0.48181423  0.24765065    -0.76800
Co315      Co  0.96859912  0.52111484  0.32067853     1.51530
Co316      Co  0.06491055  0.52636325  0.31119100     1.51690
Co317      Co  0.01947367  0.46844646  0.28063555     1.51570
Co318      Co  0.02749687  0.56505427  0.29133857     1.51470
O319        O  0.01610843  0.51633460  0.30071895    -1.38690
C320        C  0.96382150  0.56975659  0.26224190     1.12860
C321        C  0.08413534  0.47878467  0.25867229     1.12950
C322        C  0.95373969  0.47786876  0.25986728     1.12890
C323        C  0.07160549  0.58997159  0.26459221     1.12860
C324        C  0.20036805  0.41447405  0.18766774     0.06510
C325        C  0.16960119  0.42545367  0.19978005    -0.09640
C326        C  0.15749616  0.41447343  0.23055233     0.04010
C327        C  0.17599400  0.39072852  0.24964124    -0.08170
C328        C  0.20717603  0.37828980  0.23734957     0.06500
C329        C  0.21945994  0.39073072  0.20616329    -0.07590
H330        H  0.15554124  0.44433067  0.18572141     0.12100
H331        H  0.16648182  0.38237002  0.27381068     0.09620
H332        H  0.24362612  0.38237510  0.19664604     0.09470
C333        C  0.84124341  0.40399569  0.18044846     0.06510
C334        C  0.86953399  0.42092506  0.19241255    -0.09640
C335        C  0.88120010  0.41515725  0.22487419     0.04010
C336        C  0.86475488  0.39171324  0.24581387    -0.08170
C337        C  0.83615623  0.37423395  0.23366988     0.06500
C338        C  0.82433202  0.38056424  0.20081387    -0.07590
H339        H  0.88188519  0.43967519  0.17671237     0.12100
H340        H  0.87383589  0.38744946  0.27126129     0.09620
H341        H  0.80201768  0.36772775  0.19135758     0.09470
C342        C  0.83976019  0.66612128  0.23482263     0.06510
C343        C  0.87207710  0.65568101  0.24635789    -0.09640
C344        C  0.89036538  0.63085228  0.22827404     0.04010
C345        C  0.87684196  0.61694645  0.19911621    -0.08170
C346        C  0.84509919  0.62611047  0.18776701     0.06500
C347        C  0.82628695  0.65075868  0.20535475    -0.07590
H348        H  0.88266024  0.66641874  0.26923296     0.12100
H349        H  0.89067685  0.59736362  0.18580617     0.09620
H350        H  0.80137770  0.65761390  0.19644498     0.09470
O351        O  0.78305854  0.55579380  0.97679727    -0.76760
O352        O  0.80131968  0.48165050  0.10293561    -0.76780
O353        O  0.82453347  0.55831029  0.08546734    -0.76790
O354        O  0.81766904  0.47832377  0.02259479    -0.76730
O355        O  0.78687550  0.54584679  0.12327189    -0.76850
O356        O  0.78274282  0.48813236  0.97992834    -0.76770
O357        O  0.79463908  0.43542401  0.07145648    -0.76760
O358        O  0.82310884  0.56232599  0.01511372    -0.76800
C359        C  0.81149816  0.56736424  0.98585415     1.12930
C360        C  0.80535321  0.44949803  0.09799588     1.12820
C361        C  0.81387425  0.56050855  0.11539598     1.12950
C362        C  0.80931931  0.47465661  0.99171571     1.12830
O363        O  0.71692869  0.48911228  0.01069495    -0.76760
O364        O  0.72340312  0.54870689  0.09417041    -0.76840
O365        O  0.76027283  0.59673695  0.01918471    -0.76770
O366        O  0.73733678  0.46779323  0.08619819    -0.76750
O367        O  0.74350013  0.49610564  0.13446463    -0.76800
O368        O  0.71984618  0.55922245  0.01058817    -0.76770
O369        O  0.75370520  0.45024381  0.02192200    -0.76730
O370        O  0.75976326  0.59067017  0.08666620    -0.76800
Co371      Co  0.75097492  0.52317404  0.99788136     1.51530
Co372      Co  0.76028690  0.51465407  0.09420740     1.51690
Co373      Co  0.79152551  0.57362257  0.05136544     1.51570
Co374      Co  0.77967473  0.47720155  0.05519876     1.51470
O375        O  0.77074097  0.52623807  0.04587646    -1.38690
C376        C  0.72720157  0.45922387  0.00714429     1.12860
C377        C  0.73255048  0.57922928  0.09904031     1.12950
C378        C  0.73191522  0.58845146  0.00678172     1.12890
C379        C  0.73258105  0.47067030  0.11846789     1.12860
C380        C  0.65673177  0.91415006  0.37222750     0.06510
C381        C  0.67502309  0.89008759  0.35333396    -0.09640
C382        C  0.70561130  0.87680517  0.36629433     0.04010
C383        C  0.71751692  0.88864628  0.39796472    -0.08170
C384        C  0.69855337  0.91258743  0.41630910     0.06500
C385        C  0.66836142  0.92447200  0.40352523    -0.07590
H386        H  0.66579996  0.88211399  0.32881005     0.12100
H387        H  0.74130833  0.87968479  0.40797239     0.09620
H388        H  0.65447444  0.94357889  0.41748046     0.09470
C389        C  0.91268039  0.69844717  0.41631942     0.06510
C390        C  0.92456857  0.66825500  0.40353565    -0.09640
C391        C  0.91425046  0.65662350  0.37223720     0.04010
C392        C  0.89018847  0.67491348  0.35334220    -0.08170
C393        C  0.87690197  0.70550183  0.36630185     0.06500
C394        C  0.88873901  0.71740898  0.39797361    -0.07590
H395        H  0.94367499  0.65436923  0.41749182     0.12100
H396        H  0.88221832  0.66568920  0.32881766     0.09620
H397        H  0.87977420  0.74120049  0.40798127     0.09470
C398        C  0.78760443  0.78749946  0.32875751     0.05670
C399        C  0.80156238  0.75733954  0.31452626     0.05670
C400        C  0.78690576  0.74255828  0.28477214     0.05670
C401        C  0.75658425  0.75648036  0.27061971     0.05670
C402        C  0.74266471  0.78680403  0.28477202     0.05670
C403        C  0.75744748  0.80146072  0.31452533     0.05670
C404        C  0.70306428  0.70296464  0.19617336     0.06510
C405        C  0.71524519  0.67169317  0.18361253    -0.09640
C406        C  0.69619648  0.65304543  0.15960048     0.04010
C407        C  0.66538041  0.66527474  0.14837708    -0.08170
C408        C  0.65314661  0.69609000  0.15960187     0.06500
C409        C  0.67179132  0.71514174  0.18361470    -0.07590
H410        H  0.73943251  0.66221579  0.19205634     0.12100
H411        H  0.65134104  0.65123259  0.12932734     0.09620
H412        H  0.66231048  0.73932817  0.19206074     0.09470
O413        O  0.56240417  0.82299671  0.01511951    -0.76760
O414        O  0.43551600  0.79450251  0.07148401    -0.76780
O415        O  0.48820795  0.78263173  0.97994087    -0.76790
O416        O  0.54594413  0.78674721  0.12327703    -0.76730
O417        O  0.47839912  0.81754890  0.02261632    -0.76850
O418        O  0.55840339  0.82441172  0.08547545    -0.76770
O419        O  0.48174669  0.80118787  0.10295250    -0.76760
O420        O  0.55586529  0.78295032  0.97679788    -0.76800
C421        C  0.56743624  0.81139035  0.98585680     1.12930
C422        C  0.44959429  0.80521781  0.09802056     1.12820
C423        C  0.47473163  0.80920615  0.99173497     1.12950
C424        C  0.56060477  0.81374803  0.11540265     1.12830
O425        O  0.59076291  0.75964017  0.08665920    -0.76760
O426        O  0.45033002  0.75357934  0.02193692    -0.76840
O427        O  0.55930076  0.71972899  0.01057916    -0.76770
O428        O  0.49621190  0.74336342  0.13447284    -0.76750
O429        O  0.46789405  0.73719989  0.08621066    -0.76800
O430        O  0.59681423  0.76015675  0.01917413    -0.76770
O431        O  0.54880640  0.72327483  0.09416969    -0.76730
O432        O  0.48919847  0.71680827  0.01069741    -0.76800
Co433      Co  0.57370747  0.79140645  0.05136482     1.51530
Co434      Co  0.47728971  0.77954580  0.05521475     1.51690
Co435      Co  0.52325249  0.75086034  0.99788321     1.51570
Co436      Co  0.51475110  0.76015733  0.09421435     1.51470
O437        O  0.52632428  0.77061973  0.04588180    -1.38690
C438        C  0.57932665  0.73242606  0.09903693     1.12860
C439        C  0.45931157  0.72708068  0.00714899     1.12950
C440        C  0.58852650  0.73179997  0.00676722     1.12890
C441        C  0.47077555  0.73244358  0.11848013     1.12860
C442        C  0.40410478  0.84111437  0.18047826     0.06510
C443        C  0.38067484  0.82420580  0.20084682    -0.09640
C444        C  0.37434542  0.83603648  0.23370079     0.04010
C445        C  0.39182312  0.86463911  0.24583950    -0.08170
C446        C  0.41526547  0.88108162  0.22489672     0.06500
C447        C  0.42103335  0.86940868  0.19243721    -0.07590
H448        H  0.36783871  0.80188858  0.19139453     0.12100
H449        H  0.38755949  0.87372513  0.27128535     0.09620
H450        H  0.43978212  0.88175785  0.17673466     0.09470
C451        C  0.66622009  0.83965024  0.23482462     0.06510
C452        C  0.65085729  0.82617051  0.20535958    -0.09640
C453        C  0.62620424  0.84497708  0.18777296     0.04010
C454        C  0.61703555  0.87672071  0.19912065    -0.08170
C455        C  0.63094247  0.89025140  0.22827460     0.06500
C456        C  0.65577583  0.87196865  0.24635720    -0.07590
H457        H  0.65771670  0.80126066  0.19645069     0.12100
H458        H  0.59744983  0.89055134  0.18581148     0.09620
H459        H  0.66651473  0.88255763  0.26922916     0.09470
C460        C  0.70462677  0.33791423  0.20030864     0.06510
C461        C  0.71657896  0.36900255  0.18810321    -0.09640
C462        C  0.69681193  0.38765775  0.16539601     0.04010
C463        C  0.66552053  0.37552308  0.15490937    -0.08170
C464        C  0.65347206  0.34488614  0.16704148     0.06500
C465        C  0.67288763  0.32587895  0.18974343    -0.07590
H466        H  0.74095966  0.37858043  0.19616665     0.12100
H467        H  0.65062384  0.38982598  0.13692887     0.09620
H468        H  0.66339527  0.30199222  0.19906615     0.09470
C469        C  0.78693420  0.25685761  0.33083216     0.05670
C470        C  0.80125853  0.28619745  0.31649942     0.05670
C471        C  0.78693621  0.30052595  0.28715555     0.05670
C472        C  0.75726077  0.28641227  0.27304197     0.05670
C473        C  0.74295419  0.25700685  0.28730802     0.05670
C474        C  0.75725783  0.24274529  0.31671849     0.05670
C475        C  0.70461127  0.17002421  0.36822321     0.06510
C476        C  0.67287181  0.15946380  0.35618405    -0.09640
C477        C  0.65345367  0.13676155  0.37518794     0.04010
C478        C  0.66549949  0.12462518  0.40582568    -0.08170
C479        C  0.69679124  0.13510657  0.41796396     0.06500
C480        C  0.71656101  0.15781370  0.39931199    -0.07590
H481        H  0.66338183  0.16878939  0.33229615     0.12100
H482        H  0.65060112  0.10664418  0.42012557     0.09620
H483        H  0.74094258  0.16587222  0.40889212     0.09470
O484        O  0.48930604  0.94572976  0.28872836    -0.76760
O485        O  0.55786742  0.07465055  0.26941005    -0.76780
O486        O  0.48190688  0.05423861  0.24766847    -0.76790
O487        O  0.56513056  0.99429789  0.25354773    -0.76730
O488        O  0.49387803  0.09249013  0.28538180    -0.76850
O489        O  0.55659334  0.95173172  0.28878695    -0.76770
O490        O  0.60580514  0.04608682  0.27551523    -0.76760
O491        O  0.48041238  0.98336495  0.24853613    -0.76800
C492        C  0.47797032  0.95363073  0.25988304     1.12930
C493        C  0.59005548  0.07150980  0.26458181     1.12820
C494        C  0.47887963  0.08403464  0.25869023     1.12950
C495        C  0.56985002  0.96371412  0.26224059     1.12830
O496        O  0.55517926  0.98315740  0.35422059    -0.76760
O497        O  0.49314752  0.06357530  0.34868569    -0.76840
O498        O  0.44707174  0.98626824  0.31184120    -0.76770
O499        O  0.57384504  0.05877376  0.33357015    -0.76750
O500        O  0.54407900  0.10591098  0.32779999    -0.76800
O501        O  0.48504008  0.97989249  0.35216219    -0.76770
O502        O  0.59360962  0.99550856  0.31727833    -0.76730
O503        O  0.45084202  0.05406803  0.31306460    -0.76800
Co504      Co  0.52122287  0.96849238  0.32068703     1.51530
Co505      Co  0.52646344  0.06481038  0.31120124     1.51690
Co506      Co  0.46854769  0.01936748  0.28065532     1.51570
Co507      Co  0.56515043  0.02739521  0.29133512     1.51470
O508        O  0.51643656  0.01600467  0.30072948    -1.38690
C509        C  0.58508235  0.98034319  0.34370617     1.12860
C510        C  0.46238405  0.06738933  0.33994351     1.12950
C511        C  0.45582612  0.97498142  0.34040864     1.12890
C512        C  0.57007370  0.09088622  0.33847414     1.12860
O513        O  0.48505591  0.32187415  0.01017468    -0.76760
O514        O  0.54409117  0.29751268  0.13619036    -0.76780
O515        O  0.45085695  0.28277118  0.08434262    -0.76790
O516        O  0.59362354  0.28698291  0.02578523    -0.76730
O517        O  0.49316001  0.31839407  0.09384862    -0.76850
O518        O  0.55519609  0.32392960  0.01344200    -0.76770
O519        O  0.57386317  0.30327131  0.08905247    -0.76760
O520        O  0.44708857  0.28155226  0.01654148    -0.76800
C521        C  0.45584119  0.31012251  0.00526364     1.12930
C522        C  0.57008875  0.30818053  0.12116548     1.12820
C523        C  0.46239631  0.30965188  0.09766050     1.12950
C524        C  0.58509844  0.31341404  0.01062605     1.12830
O525        O  0.55660707  0.25850337  0.98200450    -0.76760
O526        O  0.49389205  0.25509324  0.12276609    -0.76840
O527        O  0.48043079  0.21825164  0.01363093    -0.76770
O528        O  0.60581707  0.24521605  0.07636220    -0.76750
O529        O  0.55788082  0.23912375  0.10493276    -0.76800
O530        O  0.48932317  0.25844899  0.97600047    -0.76770
O531        O  0.56513844  0.22325815  0.02456821    -0.76730
O532        O  0.48192660  0.21738037  0.08451137    -0.76800
Co533      Co  0.52123875  0.29040208  0.99876962     1.51530
Co534      Co  0.52647736  0.28091291  0.09508748     1.51690
Co535      Co  0.46856477  0.25036548  0.04963939     1.51570
Co536      Co  0.56516346  0.26104002  0.05767093     1.51470
O537        O  0.51645202  0.27043972  0.04628025    -1.38690
C538        C  0.56985769  0.23195347  0.99398350     1.12860
C539        C  0.47889771  0.22840105  0.11430924     1.12950
C540        C  0.47799285  0.22960152  0.98389569     1.12890
C541        C  0.59006772  0.23428941  0.10178948     1.12860
C542        C  0.41459487  0.20028395  0.18768142     0.06510
C543        C  0.42557421  0.16951656  0.19979625    -0.09640
C544        C  0.41458570  0.15740802  0.23056433     0.04010
C545        C  0.39083593  0.17590425  0.24964782    -0.08170
C546        C  0.37839930  0.20708760  0.23735469     0.06500
C547        C  0.39084593  0.21937400  0.20617152    -0.07590
H548        H  0.44445458  0.15545755  0.18574192     0.12100
H549        H  0.38247141  0.16638944  0.27381425     0.09620
H550        H  0.38248967  0.24354034  0.19665210     0.09470
C551        C  0.40413857  0.15022803  0.87133531     0.06510
C552        C  0.42107119  0.16217541  0.89963357    -0.09640
C553        C  0.41531398  0.19463283  0.91131347     0.04010
C554        C  0.39188074  0.21558645  0.89487220    -0.08170
C555        C  0.37439975  0.20346008  0.86626510     0.06500
C556        C  0.38071673  0.17060720  0.85442861    -0.07590
H557        H  0.43981248  0.14646408  0.91198240     0.12100
H558        H  0.38762553  0.24103049  0.90396351     0.09620
H559        H  0.36787615  0.16116330  0.83210918     0.09470
C560        C  0.62621031  0.15748735  0.87523169     0.06510
C561        C  0.61703659  0.16883298  0.90697620    -0.09640
C562        C  0.63094034  0.19798553  0.92051042     0.04010
C563        C  0.65577362  0.21607004  0.90223025    -0.08170
C564        C  0.66622284  0.20454019  0.86991142     0.06500
C565        C  0.65086474  0.17507551  0.85642803    -0.07590
H566        H  0.59745054  0.15552262  0.92080510     0.12100
H567        H  0.66650905  0.23894134  0.91282176     0.09620
H568        H  0.65772927  0.16616768  0.83151788     0.09470
O569        O  0.59681794  0.98887728  0.79041899    -0.76760
O570        O  0.46791060  0.05592699  0.76743458    -0.76780
O571        O  0.48920316  0.98040740  0.74706368    -0.76790
O572        O  0.54882058  0.06387414  0.75352455    -0.76730
O573        O  0.45033057  0.99166109  0.78382720    -0.76850
O574        O  0.59077450  0.05636286  0.78989388    -0.76770
O575        O  0.49623101  0.10418362  0.77360367    -0.76760
O576        O  0.55930343  0.98027761  0.74999176    -0.76800
C577        C  0.58852717  0.97646053  0.76206614     1.12930
C578        C  0.47079518  0.08819450  0.76267847     1.12820
C579        C  0.45931398  0.97686632  0.75733196     1.12950
C580        C  0.57933899  0.06874403  0.76268002     1.12830
O581        O  0.55841561  0.05519079  0.85466751    -0.76760
O582        O  0.47838953  0.99235341  0.84780456    -0.76840
O583        O  0.55585939  0.94651183  0.81322285    -0.76770
O584        O  0.48175528  0.07267384  0.83143271    -0.76750
O585        O  0.43551814  0.04122002  0.82473661    -0.76800
O586        O  0.56240891  0.98483796  0.85326270    -0.76770
O587        O  0.54595650  0.09298718  0.81699727    -0.76730
O588        O  0.48819994  0.94966940  0.81289901    -0.76800
Co589      Co  0.57371478  0.02107537  0.82166456     1.51530
Co590      Co  0.47729254  0.02493969  0.80979072     1.51690
Co591      Co  0.52325100  0.96759602  0.78112506     1.51570
Co592      Co  0.51476275  0.06392677  0.79040570     1.51470
O593        O  0.52632921  0.01559600  0.80087640    -1.38690
C594        C  0.56061764  0.08511519  0.84399995     1.12860
C595        C  0.47471999  0.96147216  0.83946899     1.12950
C596        C  0.56743816  0.95557471  0.84165992     1.12890
C597        C  0.44960014  0.06775309  0.83545264     1.12860
C598        C  0.69857865  0.38601492  0.94288121     0.06510
C599        C  0.71754086  0.36767143  0.91893787    -0.09640
C600        C  0.70563262  0.33600440  0.90709462     0.04010
C601        C  0.67504344  0.32304664  0.92037638    -0.08170
C602        C  0.65675341  0.34193960  0.94444029     0.06500
C603        C  0.66838570  0.37323359  0.95476550    -0.07590
H604        H  0.74133272  0.37767731  0.90997605     0.12100
H605        H  0.66581855  0.29852537  0.91240109     0.09620
H606        H  0.65449937  0.38718817  0.97387396     0.09470
C607        C  0.91269686  0.38603035  0.72873322     0.06510
C608        C  0.88875262  0.36768809  0.74769519    -0.09640
C609        C  0.87692088  0.33601430  0.73579178     0.04010
C610        C  0.89021404  0.32304980  0.70520771    -0.08170
C611        C  0.91427737  0.34194145  0.68691730     0.06500
C612        C  0.92459204  0.37324104  0.69854463    -0.07590
H613        H  0.87978171  0.37769992  0.77148388     0.12100
H614        H  0.88224769  0.29852392  0.69598698     0.09620
H615        H  0.94369999  0.38719435  0.68465836     0.09470
C616        C  0.78761911  0.29846928  0.81778248     0.05670
C617        C  0.75746063  0.28423914  0.83174190     0.05670
C618        C  0.74267466  0.25449109  0.81708027     0.05670
C619        C  0.75659359  0.24034081  0.78675459     0.05670
C620        C  0.78691726  0.25449003  0.77283420     0.05670
C621        C  0.80157623  0.28423995  0.78762003     0.05670
C622        C  0.70306378  0.16590250  0.73324059     0.06510
C623        C  0.67178890  0.15334777  0.74541779    -0.09640
C624        C  0.65314431  0.12933510  0.72636592     0.04010
C625        C  0.66537889  0.11810853  0.69555085    -0.08170
C626        C  0.69619694  0.12932650  0.68332339     0.06500
C627        C  0.71524634  0.15333736  0.70197041    -0.07590
H628        H  0.66230701  0.16179603  0.76960433     0.12100
H629        H  0.65133989  0.09905881  0.68150893     0.09620
H630        H  0.73943575  0.16177626  0.69249401     0.09470
O631        O  0.82309304  0.98480892  0.59262889    -0.76760
O632        O  0.79461355  0.04115636  0.46571501    -0.76780
O633        O  0.78272259  0.94963283  0.51842702    -0.76790
O634        O  0.78686593  0.09296286  0.57614681    -0.76730
O635        O  0.81764756  0.99229782  0.50861591    -0.76850
O636        O  0.82452186  0.05515867  0.58861262    -0.76770
O637        O  0.80130588  0.07262837  0.51194554    -0.76760
O638        O  0.78304063  0.94649724  0.58609248    -0.76800
C639        C  0.81148064  0.95555108  0.59766450     1.12930
C640        C  0.80533414  0.06769136  0.47979038     1.12820
C641        C  0.80929805  0.96142063  0.50494919     1.12950
C642        C  0.81386468  0.08508653  0.59080904     1.12830
O643        O  0.75975112  0.05636155  0.62097205    -0.76760
O644        O  0.75368161  0.99162370  0.48053844    -0.76840
O645        O  0.71983039  0.98028870  0.58952648    -0.76770
O646        O  0.74348936  0.10415897  0.52640570    -0.76750
O647        O  0.73731524  0.05589671  0.49809254    -0.76800
O648        O  0.76025848  0.98888311  0.62704159    -0.76770
O649        O  0.72339184  0.06386418  0.57900560    -0.76730
O650        O  0.71690845  0.98039861  0.51941223    -0.76800
Co651      Co  0.79151138  0.02106066  0.60392495     1.51530
Co652      Co  0.77965313  0.02489830  0.50749651     1.51690
Co653      Co  0.75095659  0.96758309  0.55347326     1.51570
Co654      Co  0.76027477  0.06390206  0.54495224     1.51470
O655        O  0.77072593  0.01557371  0.55653715    -1.38690
C656        C  0.73254036  0.06873738  0.60952832     1.12860
C657        C  0.72717856  0.97684730  0.48952130     1.12950
C658        C  0.73190104  0.97648044  0.61875630     1.12890
C659        C  0.73256324  0.08816495  0.50097104     1.12860
C660        C  0.84123262  0.15014020  0.43429402     0.06510
C661        C  0.82432164  0.17051080  0.41086624    -0.09640
C662        C  0.83614919  0.20336483  0.40454038     0.04010
C663        C  0.86475043  0.21550175  0.42202077    -0.08170
C664        C  0.88119550  0.19455703  0.44546082     0.06500
C665        C  0.86952617  0.16209736  0.45122420    -0.07590
H666        H  0.80200509  0.16105995  0.39802913     0.12100
H667        H  0.87383364  0.24094731  0.41776068     0.09620
H668        H  0.88187743  0.14639318  0.46997135     0.09470
C669        C  0.84510147  0.15746442  0.65639733     0.06510
C670        C  0.82629072  0.17505981  0.68104211    -0.09640
C671        C  0.83976646  0.20452914  0.69639765     0.04010
C672        C  0.87208433  0.21605791  0.68595347    -0.08170
C673        C  0.89037173  0.19796599  0.66112918     0.06500
C674        C  0.87684565  0.16880727  0.64723023    -0.07590
H675        H  0.80138084  0.16615460  0.68790019     0.12100
H676        H  0.88266910  0.23893416  0.69668490     0.09620
H677        H  0.89067975  0.15549109  0.62765032     0.09470
C678        C  0.34501812  0.13681064  0.68358745     0.06510
C679        C  0.37565235  0.12466887  0.69562943    -0.09640
C680        C  0.38780573  0.13516302  0.72691419     0.04010
C681        C  0.36917255  0.15788986  0.74668038    -0.08170
C682        C  0.33808688  0.17010572  0.73473434     0.06500
C683        C  0.32603304  0.15953158  0.70300215    -0.07590
H684        H  0.38993722  0.10667295  0.68073415     0.12100
H685        H  0.37876431  0.16595856  0.77105680     0.09620
H686        H  0.30214758  0.16886038  0.69351544     0.09470
C687        C  0.24293733  0.28652920  0.78735954     0.05670
C688        C  0.25704499  0.30064142  0.81704090     0.05670
C689        C  0.28638218  0.28631101  0.83137053     0.05670
C690        C  0.30071400  0.25697071  0.81704615     0.05670
C691        C  0.28660591  0.24285857  0.78736473     0.05670
C692        C  0.25720180  0.25712198  0.77305488     0.05670
O693        O  0.32191395  0.97992571  0.51521546    -0.76760
O694        O  0.29756940  0.10593142  0.57423978    -0.76780
O695        O  0.28281092  0.05407648  0.48100706    -0.76790
O696        O  0.28704055  0.99554129  0.62379790    -0.76730
O697        O  0.31843785  0.06357987  0.52331002    -0.76850
O698        O  0.32398001  0.98319659  0.58536256    -0.76770
O699        O  0.30333009  0.05880193  0.60402436    -0.76760
O700        O  0.28158835  0.98628218  0.47724812    -0.76800
C701        C  0.31016061  0.97501238  0.48599897     1.12930
C702        C  0.30824592  0.09091097  0.60023828     1.12820
C703        C  0.30969364  0.06738979  0.49254365     1.12950
C704        C  0.31346975  0.98038353  0.61527014     1.12830
O705        O  0.25855710  0.95176071  0.58678518    -0.76760
O706        O  0.25514321  0.09250351  0.52404652    -0.76840
O707        O  0.21829624  0.98337710  0.51060402    -0.76770
O708        O  0.24528453  0.04611567  0.63599360    -0.76750
O709        O  0.23918555  0.07468177  0.58805087    -0.76800
O710        O  0.25849375  0.94575005  0.51949445    -0.76770
O711        O  0.22331599  0.99432423  0.59531854    -0.76730
O712        O  0.21742836  0.05425243  0.51209059    -0.76800
Co713      Co  0.29044948  0.96852134  0.55140707     1.51530
Co714      Co  0.28096412  0.06482957  0.55663603     1.51690
Co715      Co  0.25040722  0.01938014  0.49872654     1.51570
Co716      Co  0.26109729  0.02742251  0.59533417     1.51470
O717        O  0.27048602  0.01602645  0.54661735    -1.38690
C718        C  0.23201031  0.96374122  0.60003920     1.12860
C719        C  0.22845193  0.08404600  0.50905219     1.12950
C720        C  0.22964493  0.95364311  0.50816852     1.12890
C721        C  0.23436201  0.07154324  0.62024333     1.12860
O722        O  0.98637767  0.28150542  0.47723982    -0.76760
O723        O  0.05887739  0.30327052  0.60402184    -0.76780
O724        O  0.98327180  0.32390561  0.58535174    -0.77270
O725        O  0.06366592  0.31837132  0.52330719    -0.76730
O726        O  0.99562117  0.28697110  0.62379193    -0.76850
O727        O  0.05416987  0.28273984  0.48100517    -0.76770
O728        O  0.10600951  0.29751185  0.57424529    -0.76760
O729        O  0.98000890  0.32183212  0.51520554    -0.76800
C730        C  0.97509767  0.31007511  0.48599016     1.12930
C731        C  0.09098499  0.30818892  0.60024107     1.12820
C732        C  0.98045994  0.31339809  0.61526052     1.12950
C733        C  0.06748169  0.30962401  0.49254219     1.12830
O734        O  0.05435451  0.21735609  0.51208985    -0.76760
O735        O  0.99441852  0.22323933  0.59532012    -0.76840
O736        O  0.94584823  0.25840113  0.51948460    -0.76770
O737        O  0.07476785  0.23912115  0.58805537    -0.76750
O738        O  0.04620001  0.24522309  0.63599601    -0.76800
O739        O  0.98348325  0.21821056  0.51059697    -0.76770
O740        O  0.09259637  0.25507824  0.52405194    -0.76730
O741        O  0.95185157  0.25847279  0.58677788    -0.76800
Co742      Co  0.01947888  0.25033011  0.49872242     1.51530
Co743      Co  0.02750814  0.26102914  0.59533339     1.51690
Co744      Co  0.96860839  0.29036623  0.55139793     1.51570
Co745      Co  0.06491492  0.28089816  0.55663653     1.51470
O746        O  0.01611632  0.27041123  0.54661336    -1.38690
C747        C  0.08414524  0.22838499  0.50905522     1.12860
C748        C  0.96383516  0.23192916  0.60003738     1.12950
C749        C  0.95374920  0.22955399  0.50815588     1.12890
C750        C  0.07162812  0.23430058  0.62024818     1.12860
C751        C  0.20035970  0.15739691  0.44471936     0.06510
C752        C  0.16959263  0.16950882  0.45569724    -0.09640
C753        C  0.15749290  0.20028308  0.44472235     0.04010
C754        C  0.17599438  0.21937363  0.42098165    -0.08170
C755        C  0.20717557  0.20708142  0.40854194     0.06500
C756        C  0.21945574  0.17589349  0.42097951    -0.07590
H757        H  0.15552952  0.15544928  0.47457182     0.12100
H758        H  0.16648568  0.24354460  0.41262726     0.09620
H759        H  0.24362188  0.16637601  0.41262445     0.09470
C760        C  0.13688318  0.34495631  0.68359433     0.06510
C761        C  0.12474483  0.37559035  0.69564423    -0.09640
C762        C  0.13524471  0.38773893  0.72692915     0.04010
C763        C  0.15797394  0.36910099  0.74668747    -0.08170
C764        C  0.17018649  0.33801556  0.73473350     0.06500
C765        C  0.15960664  0.32596670  0.70300122    -0.07590
H766        H  0.10674710  0.38987872  0.68075512     0.12100
H767        H  0.16604665  0.37868861  0.77106430     0.09620
H768        H  0.16893285  0.30208128  0.69350841     0.09470
C769        C  0.20514323  0.20506367  0.70003777     0.06510
C770        C  0.21699396  0.17363728  0.68872252    -0.09640
C771        C  0.19744189  0.15444234  0.66612172     0.04010
C772        C  0.16644280  0.16637133  0.65483960    -0.08170
C773        C  0.15452089  0.19737344  0.66612521     0.06500
C774        C  0.17371987  0.21692148  0.68872595    -0.07590
H775        H  0.24114726  0.16420919  0.69739565     0.12100
H776        H  0.15171224  0.15164398  0.63689999     0.09620
H777        H  0.16429718  0.24107726  0.69740179     0.09470
C778        C  0.66990016  0.20497678  0.23527183     0.06510
C779        C  0.65857028  0.17356070  0.24713554    -0.09640
C780        C  0.63594120  0.15438140  0.22760134     0.04010
C781        C  0.62464541  0.16631670  0.19660566    -0.08170
C782        C  0.63594593  0.19730891  0.18466970     0.06500
C783        C  0.65857519  0.21684000  0.20385214    -0.07590
H784        H  0.66725348  0.16412867  0.27128635     0.12100
H785        H  0.60668493  0.15160216  0.18188891     0.09620
H786        H  0.66726228  0.24098794  0.19441978     0.09470
C787        C  0.20509173  0.66978624  0.23531164     0.06510
C788        C  0.21694921  0.65845767  0.20389107    -0.09640
C789        C  0.19740615  0.63584183  0.18470487     0.04010
C790        C  0.16640867  0.62455800  0.19663734    -0.08170
C791        C  0.15447995  0.63585656  0.22763404     0.06500
C792        C  0.17367025  0.65847261  0.24717272    -0.07590
H793        H  0.24110142  0.66713171  0.19446096     0.12100
H794        H  0.15168510  0.60660700  0.18191746     0.09620
H795        H  0.16424289  0.66715784  0.27132460     0.09470
C796        C  0.34078374  0.34068669  0.19778045     0.06510
C797        C  0.32813681  0.37150425  0.18457244    -0.09640
C798        C  0.34619416  0.38916819  0.15925628     0.04010
C799        C  0.37651407  0.37641910  0.14738729    -0.08170
C800        C  0.38926744  0.34610203  0.15926223     0.06500
C801        C  0.37160465  0.32804378  0.18457886    -0.07590
H802        H  0.30439077  0.38143462  0.19361014     0.12100
H803        H  0.38980593  0.38971181  0.12746525     0.09620
H804        H  0.38153852  0.30430011  0.19362180     0.09470
C805        C  0.34077867  0.16752317  0.37094280     0.06510
C806        C  0.37160474  0.15432441  0.35830891    -0.09640
C807        C  0.38925980  0.12900518  0.37637057     0.04010
C808        C  0.37649391  0.11712564  0.40668182    -0.08170
C809        C  0.34616926  0.12899223  0.41942142     0.06500
C810        C  0.32811971  0.15431061  0.40175445    -0.07590
H811        H  0.38154837  0.16337127  0.33456969     0.12100
H812        H  0.38977969  0.09720179  0.41997691     0.09620
H813        H  0.30437029  0.16334693  0.41167814     0.09470
C814        C  0.16762761  0.34067576  0.37094563     0.06510
C815        C  0.15441721  0.32802398  0.40176165    -0.09640
C816        C  0.12909812  0.34607752  0.41942354     0.04010
C817        C  0.11723011  0.37639889  0.40667497    -0.08170
C818        C  0.12910795  0.38915701  0.37636002     0.06500
C819        C  0.15442683  0.37149825  0.35830325    -0.07590
H820        H  0.16345566  0.30427731  0.41169261     0.12100
H821        H  0.09730616  0.38968779  0.41996580     0.09620
H822        H  0.16347206  0.38143633  0.33456102     0.09470
C823        C  0.24533435  0.28965981  0.31991995     0.05670
C824        C  0.25969936  0.30385792  0.28985657     0.05670
C825        C  0.28976135  0.28966318  0.27548935     0.05670
C826        C  0.30395833  0.25960102  0.28985615     0.05670
C827        C  0.28976208  0.24523278  0.31991888     0.05670
C828        C  0.25970008  0.25959705  0.33411574     0.05670
C829        C  0.19412232  0.32200213  0.35226868    -0.09890
C830        C  0.21668121  0.30688642  0.33714988    -0.11450
C831        C  0.30699026  0.21657841  0.33714665    -0.09890
C832        C  0.32210756  0.19401858  0.35226336    -0.11450
C833        C  0.32210709  0.32200993  0.22427481    -0.09890
C834        C  0.30698895  0.30689261  0.24683450    -0.11450
C835        C  0.24218117  0.24207705  0.36196673    -0.09890
C836        C  0.22657477  0.22647471  0.38357859    -0.11450
C837        C  0.10985950  0.32361662  0.62679483    -0.09890
C838        C  0.12413542  0.33294727  0.65192861    -0.11450
C839        C  0.09198119  0.32576810  0.47102232    -0.09890
C840        C  0.11179192  0.33361203  0.44908501    -0.11450
C841        C  0.12319586  0.20917690  0.65276096    -0.09890
C842        C  0.09824002  0.21860937  0.63847069    -0.11450
C843        C  0.12781029  0.21191231  0.46197647    -0.09890
C844        C  0.10613274  0.21688126  0.48275782    -0.11450
C845        C  0.21197854  0.12770802  0.46197122    -0.09890
C846        C  0.21694513  0.10602945  0.48275279    -0.11450
C847        C  0.20923851  0.12311448  0.65275405    -0.09890
C848        C  0.21866890  0.09815684  0.63846330    -0.11450
C849        C  0.33369632  0.11168741  0.44908039    -0.09890
C850        C  0.32584358  0.09188184  0.47101957    -0.11450
C851        C  0.22476840  0.22468506  0.72379333    -0.09890
C852        C  0.24029052  0.24020696  0.74509225    -0.11450
C853        C  0.21522568  0.30352437  0.77026409    -0.09890
C854        C  0.19401535  0.31887400  0.75459749    -0.11450
C855        C  0.30360241  0.21514447  0.77027324    -0.09890
C856        C  0.31895038  0.19393344  0.75460517    -0.11450
C857        C  0.33300414  0.12406758  0.65192197    -0.09890
C858        C  0.32367184  0.10979119  0.62678896    -0.11450
C859        C  0.92120455  0.20959369  0.64556083    -0.09890
C860        C  0.94324056  0.21647730  0.62558538    -0.11450
C861        C  0.90860227  0.20597870  0.46610006    -0.09890
C862        C  0.93005568  0.21380485  0.48611815    -0.11450
C863        C  0.83243847  0.12926712  0.63713570    -0.09890
C864        C  0.82629114  0.10793562  0.61614555    -0.11450
C865        C  0.81967852  0.09347509  0.45956638    -0.09890
C866        C  0.82853647  0.11814608  0.44459141    -0.11450
C867        C  0.71608175  0.09298757  0.63099572    -0.09890
C868        C  0.70825933  0.11244649  0.65326895    -0.11450
C869        C  0.80433814  0.23746570  0.74442981    -0.09890
C870        C  0.82028829  0.22287345  0.72225757    -0.11450
C871        C  0.72270641  0.19103947  0.75288006    -0.09890
C872        C  0.73859212  0.21261907  0.76875553    -0.11450
C873        C  0.95381556  0.32462211  0.63695151    -0.09890
C874        C  0.93247358  0.32971120  0.65803998    -0.11450
C875        C  0.85167726  0.31686143  0.75499855    -0.09890
C876        C  0.82978104  0.30152504  0.77044476    -0.11450
C877        C  0.72483989  0.31685331  0.88184980    -0.09890
C878        C  0.74028780  0.30152146  0.85995093    -0.11450
C879        C  0.62308504  0.11246021  0.73842105    -0.09890
C880        C  0.60080968  0.09299967  0.74623133    -0.11450
C881        C  0.44380892  0.10632894  0.74745751    -0.09890
C882        C  0.41888207  0.12101363  0.73855826    -0.11450
C883        C  0.69209090  0.22287951  0.85044111    -0.09890
C884        C  0.71426804  0.23747022  0.83449810    -0.11450
C885        C  0.60694881  0.12929259  0.86256357    -0.09890
C886        C  0.58595712  0.10796336  0.85641937    -0.11450
C887        C  0.35016726  0.22439522  0.84883058    -0.09890
C888        C  0.32864856  0.24013456  0.83397547    -0.11450
C889        C  0.42938546  0.09355132  0.84978287    -0.09890
C890        C  0.41442192  0.11823082  0.85863494    -0.11450
C891        C  0.35342822  0.22648200  0.25674165    -0.09890
C892        C  0.33181189  0.24208520  0.27233965    -0.11450
C893        C  0.59539907  0.21649935  0.97338359    -0.09890
C894        C  0.61537204  0.20961400  0.95134545    -0.11450
C895        C  0.45596041  0.21385858  0.96019304    -0.09890
C896        C  0.43594855  0.20604158  0.93873029    -0.11450
C897        C  0.44087703  0.32579948  0.12215927    -0.09890
C898        C  0.41893545  0.33364379  0.14196487    -0.11450
C899        C  0.45261448  0.21688332  0.13630486    -0.09890
C900        C  0.43184396  0.21190703  0.15799115    -0.11450
C901        C  0.60828220  0.21857443  0.12839632    -0.09890
C902        C  0.62257148  0.20912243  0.15334817    -0.11450
C903        C  0.62787261  0.32971482  0.96263067    -0.09890
C904        C  0.60678579  0.32463194  0.98397553    -0.11450
C905        C  0.60827088  0.09811440  0.24886652    -0.09890
C906        C  0.62256256  0.12306355  0.23941487    -0.11450
C907        C  0.45259602  0.10603060  0.24717391    -0.09890
C908        C  0.43182752  0.12771746  0.24219493    -0.11450
C909        C  0.44086997  0.09189652  0.35608455    -0.09890
C910        C  0.41893084  0.11170740  0.36392054    -0.11450
C911        C  0.70843796  0.12096674  0.44904606    -0.09890
C912        C  0.71734115  0.10629256  0.47397967    -0.11450
C913        C  0.59663646  0.10976387  0.35387937    -0.09890
C914        C  0.62177879  0.12403245  0.36319198    -0.11450
C915        C  0.69367868  0.22458451  0.25488286    -0.09890
C916        C  0.71498844  0.24009755  0.27039805    -0.11450
C917        C  0.74016095  0.21503769  0.33371897    -0.09890
C918        C  0.72448600  0.19383604  0.34907213    -0.11450
C919        C  0.81871122  0.22429087  0.38030034    -0.09890
C920        C  0.80385719  0.24002452  0.35877501    -0.11450
C921        C  0.74016768  0.30340867  0.24532868    -0.09890
C922        C  0.72449695  0.31876132  0.22412307    -0.11450
C923        C  0.62179579  0.33289543  0.15431105    -0.09890
C924        C  0.59665196  0.32358477  0.14004349    -0.11450
C925        C  0.59539832  0.94311932  0.24679035    -0.09890
C926        C  0.61537482  0.92108452  0.23990655    -0.11450
C927        C  0.43590376  0.90848804  0.23632030    -0.09890
C928        C  0.45592501  0.92993910  0.24414244    -0.11450
C929        C  0.60693825  0.83231203  0.15957884    -0.09890
C930        C  0.58594473  0.82616823  0.13825038    -0.11450
C931        C  0.41440360  0.82841610  0.14848393    -0.09890
C932        C  0.42937642  0.81955895  0.12381087    -0.11450
C933        C  0.62308483  0.70814551  0.14273056    -0.09890
C934        C  0.60080325  0.71596559  0.12328019    -0.11450
C935        C  0.71426114  0.80422570  0.26774947    -0.09890
C936        C  0.69208647  0.82017491  0.25316151    -0.11450
C937        C  0.73858563  0.73848313  0.24289398    -0.09890
C938        C  0.72270443  0.72260537  0.22131208    -0.11450
C939        C  0.85166023  0.72471057  0.34714731    -0.09890
C940        C  0.82976555  0.74016134  0.33181258    -0.11450
C941        C  0.71519843  0.95021052  0.46808691    -0.09890
C942        C  0.71002237  0.92935399  0.44642897    -0.11450
C943        C  0.62785309  0.93234290  0.36000030    -0.09890
C944        C  0.60676813  0.95368950  0.35491912    -0.11450
C945        C  0.72482134  0.85156285  0.34714243    -0.09890
C946        C  0.74027245  0.82966660  0.33181027    -0.11450
C947        C  0.70825693  0.62298512  0.14272908    -0.09890
C948        C  0.71608397  0.60070398  0.12328048    -0.11450
C949        C  0.70845991  0.41874114  0.15126336    -0.09890
C950        C  0.71736226  0.44367676  0.13659373    -0.11450
C951        C  0.71004868  0.41613227  0.95964897    -0.09890
C952        C  0.71522358  0.43778923  0.98050651    -0.11450
C953        C  0.82027951  0.69198310  0.25315987    -0.09890
C954        C  0.80432712  0.71415539  0.26774809    -0.11450
C955        C  0.82629588  0.58584831  0.13824353    -0.09890
C956        C  0.83243923  0.60684259  0.15957202    -0.11450
C957        C  0.81871625  0.34999182  0.25459094    -0.09890
C958        C  0.80385996  0.32846647  0.27032134    -0.11450
C959        C  0.81969543  0.42927456  0.12378159    -0.09890
C960        C  0.82855051  0.41429731  0.14845300    -0.11450
C961        C  0.22657285  0.35332328  0.25674077    -0.09890
C962        C  0.24217980  0.33170974  0.27233965    -0.11450
C963        C  0.94322829  0.59530775  0.24679462    -0.09890
C964        C  0.92119563  0.61528546  0.23990968    -0.11450
C965        C  0.93005065  0.45582142  0.24412576    -0.09890
C966        C  0.90860240  0.43579775  0.23630235    -0.11450
C967        C  0.11180892  0.41882386  0.36390160    -0.09890
C968        C  0.09199758  0.44076098  0.35606231    -0.11450
C969        C  0.12780983  0.43172216  0.24218163    -0.09890
C970        C  0.10612735  0.45249606  0.24715787    -0.11450
C971        C  0.09820871  0.60819537  0.24888743    -0.09890
C972        C  0.12315879  0.62248857  0.23944440    -0.11450
C973        C  0.93244545  0.62774410  0.36001119    -0.09890
C974        C  0.95379157  0.60665856  0.35492894    -0.11450
C975        C  0.21865411  0.60817301  0.12842821    -0.09890
C976        C  0.20921111  0.62246347  0.15338255    -0.11450
C977        C  0.21696820  0.45249470  0.13629215    -0.09890
C978        C  0.21199098  0.43172195  0.15797679    -0.11450
C979        C  0.33373291  0.41883344  0.14195478    -0.09890
C980        C  0.32588616  0.44077493  0.12214929    -0.11450
C981        C  0.41885413  0.70832625  0.15128818    -0.09890
C982        C  0.44378564  0.71722570  0.13661139    -0.11450
C983        C  0.32367209  0.59653677  0.14006969    -0.09890
C984        C  0.33299549  0.62167495  0.15434063    -0.11450
C985        C  0.22470999  0.69355394  0.25492511    -0.09890
C986        C  0.24022874  0.71485887  0.27044158    -0.11450
C987        C  0.30353549  0.74004358  0.24536933    -0.09890
C988        C  0.31888884  0.72437543  0.22416227    -0.11450
C989        C  0.35010645  0.81859829  0.25462559    -0.09890
C990        C  0.32858467  0.80374133  0.27035896    -0.11450
C991        C  0.19397159  0.72435385  0.34912003    -0.09890
C992        C  0.21517392  0.74002732  0.33376662    -0.11450
C993        C  0.12413721  0.62166137  0.36321398    -0.09890
C994        C  0.10986273  0.59652453  0.35389303    -0.11450
C995        C  0.61534866  0.83235824  0.94600421    -0.09890
C996        C  0.59335461  0.82524264  0.96545518    -0.11450
C997        C  0.61535939  0.91572788  0.86262192    -0.09890
C998        C  0.59336317  0.93517710  0.85550798    -0.11450
C999        C  0.43026137  0.83323486  0.94856403    -0.09890
C1000       C  0.45016326  0.82534643  0.97040329    -0.11450
C1001       C  0.45014638  0.94014923  0.85561134    -0.09890
C1002       C  0.43024420  0.91831173  0.86350002    -0.11450
C1003       C  0.20968313  0.61529387  0.95137222    -0.09890
C1004       C  0.21657310  0.59531729  0.97340619    -0.11450
C1005       C  0.22446452  0.35009749  0.84881718    -0.09890
C1006       C  0.24020627  0.32857810  0.83396517    -0.11450
C1007       C  0.20613377  0.43588967  0.93871114    -0.09890
C1008       C  0.21395620  0.45589714  0.96017637    -0.11450
C1009       C  0.95031152  0.43781253  0.74537276    -0.09890
C1010       C  0.92945595  0.41615416  0.74020076    -0.11450
C1011       C  0.12109794  0.41881461  0.73858228    -0.09890
C1012       C  0.10641401  0.44374030  0.74748885    -0.11450
C1013       C  0.10802442  0.58589609  0.85646211    -0.09890
C1014       C  0.12934986  0.60689208  0.86260538    -0.11450
C1015       C  0.11829509  0.41433509  0.85865899    -0.09890
C1016       C  0.09361472  0.42929957  0.84981332    -0.11450
C1017       C  0.11254654  0.62300980  0.73845608    -0.09890
C1018       C  0.09308551  0.60073674  0.74627035    -0.11450
C1019       C  0.22294878  0.69202091  0.85047304    -0.09890
C1020       C  0.23754323  0.71419652  0.83453010    -0.11450
C1021       C  0.21269890  0.73851663  0.76878318    -0.09890
C1022       C  0.19112239  0.72263160  0.75290426    -0.11450
C1023       C  0.32680106  0.80516455  0.83542385    -0.09890
C1024       C  0.34900990  0.82060592  0.85086510    -0.11450
C1025       C  0.32469195  0.95373792  0.63696161    -0.09890
C1026       C  0.32977891  0.93239371  0.65804923    -0.11450
C1027       C  0.41622488  0.92936566  0.74019768    -0.09890
C1028       C  0.43788255  0.95022207  0.74536550    -0.11450
C1029       C  0.31692942  0.85160346  0.75501643    -0.09890
C1030       C  0.30159612  0.82970891  0.77046804    -0.11450
C1031       C  0.41622773  0.70995198  0.95964048    -0.09890
C1032       C  0.43788357  0.71511585  0.98050061    -0.11450
C1033       C  0.32470025  0.60672541  0.98401531    -0.09890
C1034       C  0.32978242  0.62781195  0.96266960    -0.11450
C1035       C  0.30159570  0.74021733  0.85997849    -0.09890
C1036       C  0.31693062  0.72477051  0.88187549    -0.11450
C1037       C  0.11254159  0.70816941  0.65328713    -0.09890
C1038       C  0.09308088  0.71598599  0.63101401    -0.11450
C1039       C  0.10639184  0.71722052  0.47400450    -0.09890
C1040       C  0.12107395  0.70831714  0.44907557    -0.11450
C1041       C  0.95029924  0.71509262  0.46809958    -0.09890
C1042       C  0.92944353  0.70991787  0.44644103    -0.11450
C1043       C  0.23754270  0.80426094  0.74445419    -0.09890
C1044       C  0.22294994  0.82020613  0.72227893    -0.11450
C1045       C  0.10802239  0.82619021  0.61616003    -0.09890
C1046       C  0.12935073  0.83233901  0.63715183    -0.11450
C1047       C  0.20967309  0.92111042  0.64556274    -0.09890
C1048       C  0.21655809  0.94314513  0.62558558    -0.11450
C1049       C  0.24015272  0.80372974  0.35881729    -0.09890
C1050       C  0.22441386  0.81858113  0.38034020    -0.11450
C1051       C  0.09358190  0.81954734  0.45957318    -0.09890
C1052       C  0.11825600  0.82840033  0.44460235    -0.11450
C1053       C  0.20607406  0.90847662  0.46613103    -0.09890
C1054       C  0.21389684  0.92993863  0.48614190    -0.11450
C1055       C  0.91581455  0.61530852  0.86262881    -0.09890
C1056       C  0.93525938  0.59330688  0.85551862    -0.11450
C1057       C  0.83245653  0.61529040  0.94601145    -0.09890
C1058       C  0.82534476  0.59328984  0.96545725    -0.11450
C1059       C  0.82068035  0.34893166  0.85084202    -0.09890
C1060       C  0.80523554  0.32672578  0.83539978    -0.11450
C1061       C  0.91839653  0.43014896  0.86348503    -0.09890
C1062       C  0.94023039  0.45005822  0.85560651    -0.11450
C1063       C  0.83332969  0.43017682  0.94854491    -0.09890
C1064       C  0.82545034  0.45008405  0.97038271    -0.11450
C1065       C  0.83243908  0.91570385  0.64558795    -0.09890
C1066       C  0.82532692  0.93515103  0.62358843    -0.11450
C1067       C  0.93525630  0.82522926  0.62360903    -0.09890
C1068       C  0.91581054  0.83233847  0.64561087    -0.11450
C1069       C  0.80521934  0.80511324  0.35701710    -0.09890
C1070       C  0.82066328  0.82055406  0.37922465    -0.11450
C1071       C  0.82542825  0.94009075  0.48037431    -0.09890
C1072       C  0.83330836  0.91825548  0.46046568    -0.11450
C1073       C  0.91837311  0.83320050  0.46045143    -0.09890
C1074       C  0.94020674  0.82532286  0.48036180    -0.11450
C1075       C  0.33217750  0.92800359  0.44575024    -0.09890
C1076       C  0.32438280  0.94972257  0.46521501    -0.11450
C1077       C  0.41558373  0.92795347  0.36239813    -0.09890
C1078       C  0.43505079  0.94967468  0.35461611    -0.11450
C1079       C  0.30319102  0.82907360  0.33340711    -0.09890
C1080       C  0.31869222  0.85036327  0.34889602    -0.11450
C1081       C  0.92807848  0.33207252  0.44574419    -0.09890
C1082       C  0.94979906  0.32428541  0.46520930    -0.11450
C1083       C  0.92807048  0.41545988  0.36237161    -0.09890
C1084       C  0.94979137  0.43492782  0.35459193    -0.11450
C1085       C  0.85047385  0.31857344  0.34886550    -0.09890
C1086       C  0.82918965  0.30307112  0.33337091    -0.11450
C1087       C  0.41559635  0.33213467  0.95824698    -0.09890
C1088       C  0.43506067  0.32434106  0.97996716    -0.11450
C1089       C  0.33223902  0.41553372  0.95823915    -0.09890
C1090       C  0.32444515  0.43499712  0.97996078    -0.11450
C1091       C  0.31873930  0.31867078  0.88060666    -0.09890
C1092       C  0.30324636  0.30317917  0.85931192    -0.11450
C1093       C  0.80377228  0.80369744  0.74542925    -0.09890
C1094       C  0.81926362  0.81917885  0.72411531    -0.11450
C1095       C  0.80377677  0.71513249  0.83400799    -0.09890
C1096       C  0.81927066  0.69381902  0.84948727    -0.11450
C1097       C  0.69388522  0.81919337  0.84948324    -0.09890
C1098       C  0.71520276  0.80370440  0.83400477    -0.11450
C1099       C  0.71892618  0.95065387  0.63975849    -0.09890
C1100       C  0.71185806  0.92843183  0.65891711    -0.11450
C1101       C  0.60951100  0.95061166  0.74910718    -0.09890
C1102       C  0.62866450  0.92838348  0.74204893    -0.11450
C1103       C  0.74009233  0.82839502  0.77031966    -0.09890
C1104       C  0.72454965  0.84954151  0.75477704    -0.11450
C1105       C  0.92848103  0.62860868  0.74207349    -0.09890
C1106       C  0.95070902  0.60945541  0.74913201    -0.11450
C1107       C  0.92850044  0.71178371  0.65891933    -0.09890
C1108       C  0.95072619  0.71884411  0.63976314    -0.11450
C1109       C  0.82846434  0.74001779  0.77032132    -0.09890
C1110       C  0.84961200  0.72447666  0.75477931    -0.11450
C1111       C  0.62868175  0.71175970  0.95871423    -0.09890
C1112       C  0.60952112  0.71882625  0.98093431    -0.11450
C1113       C  0.71186550  0.62861707  0.95873968    -0.09890
C1114       C  0.71893632  0.60945479  0.98095786    -0.11450
C1115       C  0.72455976  0.72448438  0.87986047    -0.09890
C1116       C  0.74009875  0.74002598  0.85871011    -0.11450
loop_ 
_geom_bond_atom_site_label_1 
_geom_bond_atom_site_label_2 
_geom_bond_distance 
_geom_bond_site_symmetry_2 
_ccdc_geom_bond_type 
C1            C2   1.403       .  A
C1            C6   1.380       .  A
C1         C1111   1.420       .  S
C2            C3   1.407       .  A
C2            H7   1.083       .  S
C3            C4   1.407       .  A
C3         C1115   1.445       .  S
C4            C5   1.403       .  A
C4            H8   1.083       .  S
C5            C6   1.380       .  A
C5         C1113   1.420       .  S
C6            H9   1.087       .  S
C10          C11   1.407       .  A
C10          C15   1.407       .  A
C10        C1110   1.445       .  S
C11          C12   1.403       .  A
C11          H16   1.083       .  S
C12          C13   1.380       .  A
C12        C1107   1.420       .  S
C13          C14   1.380       .  A
C13          H17   1.087       .  S
C14          C15   1.403       .  A
C14        C1105   1.420       .  S
C15          H18   1.083       .  S
C19          C20   1.407       .  A
C19          C24   1.407       .  A
C19        C1104   1.445       .  S
C20          C21   1.403       .  A
C20          H25   1.083       .  S
C21          C22   1.380       .  A
C21        C1102   1.420       .  S
C22          C23   1.380       .  A
C22          H26   1.087       .  S
C23          C24   1.403       .  A
C23        C1100   1.420       .  S
C24          H27   1.083       .  S
C28          C29   1.415       .  A
C28          C33   1.415       .  A
C28        C1098   1.459       .  S
C29          C30   1.415       .  A
C29        C1116   1.455       .  S
C30          C31   1.415       .  A
C30        C1095   1.459       .  S
C31          C32   1.415       .  A
C31        C1109   1.455       .  S
C32          C33   1.415       .  A
C32        C1093   1.459       .  S
C33        C1103   1.455       .  S
C34          C35   1.380       .  A
C34          C39   1.402       .  A
C34        C1087   1.418       .  S
C35          C36   1.380       .  A
C35          H40   1.087       .  S
C36          C37   1.402       .  A
C36        C1089   1.418       .  S
C37          C38   1.405       .  A
C37          H41   1.083       .  S
C38          C39   1.405       .  A
C38        C1091   1.440       .  S
C39          H42   1.083       .  S
C43          C44   1.380       .  A
C43          C48   1.402       .  A
C43        C1083   1.418       .  S
C44          C45   1.380       .  A
C44          H49   1.087       .  S
C45          C46   1.402       .  A
C45        C1081   1.418       .  S
C46          C47   1.405       .  A
C46          H50   1.083       .  S
C47          C48   1.405       .  A
C47        C1085   1.440       .  S
C48          H51   1.083       .  S
C52          C53   1.402       .  A
C52          C57   1.380       .  A
C52        C1077   1.418       .  S
C53          C54   1.405       .  A
C53          H58   1.083       .  S
C54          C55   1.405       .  A
C54        C1080   1.440       .  S
C55          C56   1.402       .  A
C55          H59   1.083       .  S
C56          C57   1.380       .  A
C56        C1075   1.418       .  S
C57          H60   1.087       .  S
C61          C62   1.419       .  A
C61          C66   1.419       .  A
C61        C1070   1.479       .  S
C62          C63   1.416       .  A
C62          H67   1.082       .  S
C63          C64   1.386       .  A
C63        C1072   1.445       .  S
C64          C65   1.386       .  A
C64          H68   1.087       .  S
C65          C66   1.416       .  A
C65        C1073   1.445       .  S
C66          H69   1.082       .  S
C70          C71   1.405       .  A
C70          C75   1.380       .  A
C70        C1068   1.423       .  S
C71          C72   1.409       .  A
C71          H76   1.083       .  S
C72          C73   1.409       .  A
C72        C1094   1.449       .  S
C73          C74   1.405       .  A
C73          H77   1.083       .  S
C74          C75   1.380       .  A
C74        C1065   1.423       .  S
C75          H78   1.087       .  S
C79          C80   1.419       .  A
C79          C84   1.419       .  A
C79        C1059   1.479       .  S
C80          C81   1.416       .  A
C80          H85   1.082       .  S
C81          C82   1.386       .  A
C81        C1063   1.445       .  S
C82          C83   1.386       .  A
C82          H86   1.087       .  S
C83          C84   1.416       .  A
C83        C1061   1.445       .  S
C84          H87   1.082       .  S
C88          C89   1.405       .  A
C88          C93   1.380       .  A
C88        C1055   1.423       .  S
C89          C90   1.409       .  A
C89          H94   1.083       .  S
C90          C91   1.409       .  A
C90        C1096   1.449       .  S
C91          C92   1.405       .  A
C91          H95   1.083       .  S
C92          C93   1.380       .  A
C92        C1057   1.423       .  S
C93          H96   1.087       .  S
C97          C98   1.385       .  A
C97         C102   1.401       .  A
C97        C1052   1.423       .  S
C98          C99   1.384       .  A
C98         H103   1.086       .  S
C99         C100   1.406       .  A
C99        C1053   1.428       .  S
C100        C101   1.408       .  A
C100        H104   1.083       .  S
C101        C102   1.405       .  A
C101       C1050   1.445       .  S
C102        H105   1.083       .  S
C106        C107   1.416       .  A
C106        C111   1.383       .  A
C106       C1047   1.444       .  S
C107        C108   1.420       .  A
C107        H112   1.082       .  S
C108        C109   1.416       .  A
C108       C1044   1.474       .  S
C109        C110   1.413       .  A
C109        H113   1.082       .  S
C110        C111   1.383       .  A
C110       C1046   1.438       .  S
C111        H114   1.087       .  S
O115        C123   1.265       .  A
O115       Co135   1.995       .  S
O116        C124   1.298       .  A
O116       Co136   2.116       .  S
O117        C125   1.262       .  A
O117       Co137   1.974       .  S
O118        C126   1.273       .  A
O118       Co138   1.986   1_655  S
O119        C125   1.256       .  A
O119       Co136   1.984       .  S
O120        C126   1.270       .  A
O120       Co135   2.005       .  S
O121        C124   1.260       .  A
O121       Co138   1.874       .  S
O122        C123   1.262       .  A
O122       Co137   1.958   1_655  S
C123       C1067   1.418       .  S
C124       C1051   1.418       .  S
C125       C1045   1.434       .  S
C126       C1074   1.439       .  S
O127        C140   1.260       .  A
O127       Co135   1.973       .  S
O128        C141   1.275       .  A
O128       Co136   1.990       .  S
O129        C142   1.266       .  A
O129       Co137   1.999   1_655  S
O130        C143   1.297       .  A
O130       Co138   2.113       .  S
O131        C143   1.263       .  A
O131       Co136   1.879       .  S
O132        C142   1.260       .  A
O132       Co135   1.954       .  S
O133        C140   1.253       .  A
O133       Co138   1.977   1_655  S
O134        C141   1.268       .  A
O134       Co137   2.000       .  S
Co135       O139   2.056   1_655  S
Co136       O139   2.013       .  S
Co137       O139   2.057       .  S
Co138       O139   2.010       .  S
C140       C1041   1.431       .  S
C141       C1038   1.439       .  S
C142       C1108   1.416       .  S
C143       C1039   1.423       .  S
C144        C145   1.412       .  A
C144        C149   1.381       .  A
C144       C1031   1.435       .  S
C145        C146   1.416       .  A
C145        H150   1.082       .  S
C146        C147   1.417       .  A
C146       C1036   1.468       .  S
C147        C148   1.412       .  A
C147        H151   1.082       .  S
C148        C149   1.381       .  A
C148       C1034   1.437       .  S
C149        H152   1.087       .  S
C153        C154   1.412       .  A
C153        C158   1.381       .  A
C153       C1026   1.437       .  S
C154        C155   1.417       .  A
C154        H159   1.082       .  S
C155        C156   1.416       .  A
C155       C1029   1.468       .  S
C156        C157   1.412       .  A
C156        H160   1.082       .  S
C157        C158   1.381       .  A
C157       C1027   1.435       .  S
C158        H161   1.087       .  S
C162        C163   1.434       .  A
C162        C167   1.436       .  A
C162       C1043   1.482       .  S
C163        C164   1.432       .  A
C163       C1030   1.477       .  S
C164        C165   1.432       .  A
C164       C1023   1.488       .  S
C165        C166   1.434       .  A
C165       C1035   1.477       .  S
C166        C167   1.436       .  A
C166       C1020   1.482       .  S
C167       C1021   1.486       .  S
C168        C169   1.419       .  A
C168        C173   1.419       .  A
C168       C1022   1.479       .  S
C169        C170   1.417       .  A
C169        H174   1.082       .  S
C170        C171   1.386       .  A
C170       C1037   1.446       .  S
C171        C172   1.386       .  A
C171        H175   1.086       .  S
C172        C173   1.417       .  A
C172       C1017   1.446       .  S
C173        H176   1.082       .  S
O177        C185   1.260       .  A
O177       Co197   1.954       .  S
O178        C186   1.263       .  A
O178       Co198   1.879       .  S
O179        C187   1.268       .  A
O179       Co199   2.000       .  S
O180        C188   1.253       .  A
O180       Co200   1.977   1_655  S
O181        C187   1.275       .  A
O181       Co198   1.990       .  S
O182        C188   1.260       .  A
O182       Co197   1.973       .  S
O183        C186   1.297       .  A
O183       Co200   2.113       .  S
O184        C185   1.266       .  A
O184       Co199   1.999   1_655  S
C185       C1106   1.416       .  S
C186       C1012   1.423       .  S
C187       C1018   1.439       .  S
C188       C1009   1.431       .  S
O189        C202   1.270       .  A
O189       Co197   2.005       .  S
O190        C203   1.256       .  A
O190       Co198   1.984       .  S
O191        C204   1.262       .  A
O191       Co199   1.958   1_655  S
O192        C205   1.260       .  A
O192       Co200   1.874       .  S
O193        C205   1.298       .  A
O193       Co198   2.116       .  S
O194        C204   1.265       .  A
O194       Co197   1.995       .  S
O195        C202   1.273       .  A
O195       Co200   1.986   1_655  S
O196        C203   1.262       .  A
O196       Co199   1.974       .  S
Co197       O201   2.056   1_655  S
Co198       O201   2.013       .  S
Co199       O201   2.057       .  S
Co200       O201   2.010       .  S
C202       C1062   1.439       .  S
C203       C1013   1.434       .  S
C204       C1056   1.418       .  S
C205       C1016   1.418       .  S
C206        C207   1.385       .  A
C206        C211   1.401       .  A
C206       C1015   1.423       .  S
C207        C208   1.384       .  A
C207        H212   1.086       .  S
C208        C209   1.406       .  A
C208       C1007   1.428       .  S
C209        C210   1.408       .  A
C209        H213   1.083       .  S
C210        C211   1.405       .  A
C210       C1005   1.445       .  S
C211        H214   1.083       .  S
C215        C216   1.416       .  A
C215        C220   1.383       .  A
C215       C1003   1.444       .  S
C216        C217   1.420       .  A
C216        H221   1.082       .  S
C217        C218   1.416       .  A
C217       C1019   1.475       .  S
C218        C219   1.413       .  A
C218        H222   1.082       .  S
C219        C220   1.383       .  A
C219       C1014   1.438       .  S
C220        H223   1.087       .  S
C224        C225   1.419       .  A
C224        C229   1.419       .  A
C224       C1024   1.479       .  S
C225        C226   1.416       .  A
C225        H230   1.082       .  S
C226        C227   1.386       .  A
C226       C1002   1.445       .  S
C227        C228   1.386       .  A
C227        H231   1.087       .  S
C228        C229   1.416       .  A
C228        C999   1.445       .  S
C229        H232   1.082       .  S
C233        C234   1.405       .  A
C233        C238   1.380       .  A
C233        C997   1.423       .  S
C234        C235   1.409       .  A
C234        H239   1.083       .  S
C235        C236   1.409       .  A
C235       C1097   1.449       .  S
C236        C237   1.405       .  A
C236        H240   1.083       .  S
C237        C238   1.380       .  A
C237        C995   1.423       .  S
C238        H241   1.087       .  S
C242        C243   1.390       .  A
C242        C247   1.403       .  A
C242        C993   1.430       .  S
C243        C244   1.390       .  A
C243        H248   1.085       .  S
C244        C245   1.403       .  A
C244       C1040   1.429       .  S
C245        C246   1.405       .  A
C245        H249   1.083       .  S
C246        C247   1.405       .  A
C246        C991   1.444       .  S
C247        H250   1.083       .  S
C251        C252   1.413       .  A
C251        C256   1.413       .  A
C251        C992   1.455       .  S
C252        C253   1.412       .  A
C252       C1049   1.456       .  S
C253        C254   1.412       .  A
C253       C1079   1.451       .  S
C254        C255   1.413       .  A
C254        C990   1.456       .  S
C255        C256   1.413       .  A
C255        C987   1.455       .  S
C256        C986   1.453       .  S
C257        C258   1.405       .  A
C257        C262   1.405       .  A
C257        C988   1.444       .  S
C258        C259   1.403       .  A
C258        H263   1.083       .  S
C259        C260   1.390       .  A
C259        C984   1.430       .  S
C260        C261   1.390       .  A
C260        H264   1.085       .  S
C261        C262   1.403       .  A
C261        C981   1.429       .  S
C262        H265   1.083       .  S
O266        C274   1.266       .  A
O266       Co286   1.997       .  S
O267        C275   1.296       .  A
O267       Co287   2.109       .  S
O268        C276   1.263       .  A
O268       Co288   1.975       .  S
O269        C277   1.274   1_554  A
O269       Co289   1.986       .  S
O270        C276   1.255       .  A
O270       Co287   1.979       .  S
O271        C277   1.269       .  A
O271       Co286   2.002       .  S
O272        C275   1.263       .  A
O272       Co289   1.880       .  S
O273        C274   1.265   1_554  A
O273       Co288   1.966       .  S
C274       C1008   1.421       .  S
C275        C975   1.421       .  S
C276        C977   1.433       .  S
C277       C1004   1.438       .  S
O278        C291   1.261       .  A
O278       Co286   1.972   1_554  S
O279        C292   1.275       .  A
O279       Co287   1.989       .  S
O280        C293   1.265       .  A
O280       Co288   1.993       .  S
O281        C294   1.295       .  A
O281       Co289   2.107       .  S
O282        C294   1.263       .  A
O282       Co287   1.884       .  S
O283        C293   1.260       .  A
O283       Co286   1.954   1_554  S
O284        C291   1.255       .  A
O284       Co289   1.982       .  S
O285        C292   1.270       .  A
O285       Co288   2.007       .  S
Co286       O290   2.051   1_556  S
Co287       O290   2.013       .  S
Co288       O290   2.059       .  S
Co289       O290   2.015       .  S
C291       C1033   1.433   1_554  S
C292        C980   1.442       .  S
C293       C1090   1.414   1_554  S
C294        C983   1.423       .  S
O295        C303   1.260       .  A
O295       Co315   1.954       .  S
O296        C304   1.263       .  A
O296       Co316   1.884       .  S
O297        C305   1.270       .  A
O297       Co317   2.007       .  S
O298        C306   1.255       .  A
O298       Co318   1.982   1_655  S
O299        C305   1.275       .  A
O299       Co316   1.989       .  S
O300        C306   1.261       .  A
O300       Co315   1.972       .  S
O301        C304   1.295       .  A
O301       Co318   2.107       .  S
O302        C303   1.265       .  A
O302       Co317   1.993   1_655  S
C303       C1084   1.414       .  S
C304        C994   1.423       .  S
C305        C968   1.442       .  S
C306        C974   1.433       .  S
O307        C320   1.269       .  A
O307       Co315   2.002       .  S
O308        C321   1.255       .  A
O308       Co316   1.979       .  S
O309        C322   1.265       .  A
O309       Co317   1.966   1_655  S
O310        C323   1.263       .  A
O310       Co318   1.880       .  S
O311        C323   1.296       .  A
O311       Co316   2.109       .  S
O312        C322   1.266       .  A
O312       Co315   1.997       .  S
O313        C320   1.274       .  A
O313       Co318   1.986   1_655  S
O314        C321   1.263       .  A
O314       Co317   1.975       .  S
Co315       O319   2.052   1_655  S
Co316       O319   2.013       .  S
Co317       O319   2.059       .  S
Co318       O319   2.016       .  S
C320        C963   1.438       .  S
C321        C970   1.433       .  S
C322        C965   1.421       .  S
C323        C971   1.421       .  S
C324        C325   1.381       .  A
C324        C329   1.413       .  A
C324        C978   1.437       .  S
C325        C326   1.381       .  A
C325        H330   1.087       .  S
C326        C327   1.413       .  A
C326        C969   1.437       .  S
C327        C328   1.418       .  A
C327        H331   1.082       .  S
C328        C329   1.418       .  A
C328        C961   1.470       .  S
C329        H332   1.082       .  S
C333        C334   1.385       .  A
C333        C338   1.401       .  A
C333        C960   1.423       .  S
C334        C335   1.384       .  A
C334        H339   1.086       .  S
C335        C336   1.406       .  A
C335        C966   1.428       .  S
C336        C337   1.408       .  A
C336        H340   1.083       .  S
C337        C338   1.405       .  A
C337        C957   1.445       .  S
C338        H341   1.083       .  S
C342        C343   1.420       .  A
C342        C347   1.416       .  A
C342        C953   1.474       .  S
C343        C344   1.416       .  A
C343        H348   1.082       .  S
C344        C345   1.383       .  A
C344        C964   1.444       .  S
C345        C346   1.383       .  A
C345        H349   1.087       .  S
C346        C347   1.413       .  A
C346        C956   1.438       .  S
C347        H350   1.082       .  S
O351        C359   1.265       .  A
O351       Co371   1.995       .  S
O352        C360   1.298       .  A
O352       Co372   2.116       .  S
O353        C361   1.262       .  A
O353       Co373   1.974       .  S
O354        C362   1.273   1_554  A
O354       Co374   1.986       .  S
O355        C361   1.256       .  A
O355       Co372   1.984       .  S
O356        C362   1.270       .  A
O356       Co371   2.005       .  S
O357        C360   1.260       .  A
O357       Co374   1.874       .  S
O358        C359   1.262   1_554  A
O358       Co373   1.958       .  S
C359       C1058   1.418       .  S
C360        C959   1.418       .  S
C361        C955   1.434       .  S
C362       C1064   1.439       .  S
O363        C376   1.260       .  A
O363       Co371   1.973   1_554  S
O364        C377   1.275       .  A
O364       Co372   1.991       .  S
O365        C378   1.266       .  A
O365       Co373   1.999       .  S
O366        C379   1.297       .  A
O366       Co374   2.113       .  S
O367        C379   1.263       .  A
O367       Co372   1.879       .  S
O368        C378   1.260       .  A
O368       Co371   1.954   1_554  S
O369        C376   1.253       .  A
O369       Co374   1.977       .  S
O370        C377   1.268       .  A
O370       Co373   2.000       .  S
Co371       O375   2.056   1_556  S
Co372       O375   2.013       .  S
Co373       O375   2.057       .  S
Co374       O375   2.010       .  S
C376        C952   1.431   1_554  S
C377        C948   1.439       .  S
C378       C1114   1.416   1_554  S
C379        C950   1.423       .  S
C380        C381   1.412       .  A
C380        C385   1.381       .  A
C380        C943   1.437       .  S
C381        C382   1.417       .  A
C381        H386   1.082       .  S
C382        C383   1.416       .  A
C382        C945   1.468       .  S
C383        C384   1.412       .  A
C383        H387   1.082       .  S
C384        C385   1.381       .  A
C384        C942   1.435       .  S
C385        H388   1.087       .  S
C389        C390   1.381       .  A
C389        C394   1.412       .  A
C389       C1042   1.435       .  S
C390        C391   1.381       .  A
C390        H395   1.087       .  S
C391        C392   1.412       .  A
C391        C973   1.437       .  S
C392        C393   1.417       .  A
C392        H396   1.082       .  S
C393        C394   1.416       .  A
C393        C939   1.468       .  S
C394        H397   1.082       .  S
C398        C399   1.432       .  A
C398        C403   1.432       .  A
C398       C1069   1.488       .  S
C399        C400   1.434       .  A
C399        C940   1.477       .  S
C400        C401   1.436       .  A
C400        C954   1.482       .  S
C401        C402   1.436       .  A
C401        C937   1.486       .  S
C402        C403   1.434       .  A
C402        C935   1.482       .  S
C403        C946   1.477       .  S
C404        C405   1.419       .  A
C404        C409   1.419       .  A
C404        C938   1.479       .  S
C405        C406   1.417       .  A
C405        H410   1.082       .  S
C406        C407   1.386       .  A
C406        C947   1.446       .  S
C407        C408   1.386       .  A
C407        H411   1.086       .  S
C408        C409   1.417       .  A
C408        C933   1.446       .  S
C409        H412   1.082       .  S
O413        C421   1.262   1_554  A
O413       Co433   1.958       .  S
O414        C422   1.260       .  A
O414       Co434   1.874       .  S
O415        C423   1.270       .  A
O415       Co435   2.006       .  S
O416        C424   1.256       .  A
O416       Co436   1.984       .  S
O417        C423   1.273   1_554  A
O417       Co434   1.986       .  S
O418        C424   1.262       .  A
O418       Co433   1.974       .  S
O419        C422   1.298       .  A
O419       Co436   2.116       .  S
O420        C421   1.265       .  A
O420       Co435   1.995       .  S
C421        C996   1.418       .  S
C422        C932   1.418       .  S
C423       C1000   1.439       .  S
C424        C930   1.434       .  S
O425        C438   1.268       .  A
O425       Co433   2.000       .  S
O426        C439   1.253       .  A
O426       Co434   1.977       .  S
O427        C440   1.260       .  A
O427       Co435   1.954   1_554  S
O428        C441   1.263       .  A
O428       Co436   1.879       .  S
O429        C441   1.297       .  A
O429       Co434   2.113       .  S
O430        C440   1.266       .  A
O430       Co433   1.999       .  S
O431        C438   1.275       .  A
O431       Co436   1.991       .  S
O432        C439   1.260       .  A
O432       Co435   1.973   1_554  S
Co433       O437   2.057       .  S
Co434       O437   2.010       .  S
Co435       O437   2.056   1_556  S
Co436       O437   2.013       .  S
C438        C934   1.439       .  S
C439       C1032   1.431   1_554  S
C440       C1112   1.416   1_554  S
C441        C982   1.423       .  S
C442        C443   1.401       .  A
C442        C447   1.385       .  A
C442        C931   1.423       .  S
C443        C444   1.405       .  A
C443        H448   1.083       .  S
C444        C445   1.408       .  A
C444        C989   1.445       .  S
C445        C446   1.406       .  A
C445        H449   1.083       .  S
C446        C447   1.384       .  A
C446        C927   1.428       .  S
C447        H450   1.086       .  S
C451        C452   1.416       .  A
C451        C456   1.420       .  A
C451        C936   1.475       .  S
C452        C453   1.413       .  A
C452        H457   1.082       .  S
C453        C454   1.383       .  A
C453        C929   1.438       .  S
C454        C455   1.383       .  A
C454        H458   1.087       .  S
C455        C456   1.416       .  A
C455        C926   1.444       .  S
C456        H459   1.082       .  S
C460        C461   1.405       .  A
C460        C465   1.405       .  A
C460        C922   1.444       .  S
C461        C462   1.403       .  A
C461        H466   1.083       .  S
C462        C463   1.390       .  A
C462        C949   1.429       .  S
C463        C464   1.390       .  A
C463        H467   1.085       .  S
C464        C465   1.403       .  A
C464        C923   1.430       .  S
C465        H468   1.083       .  S
C469        C470   1.412       .  A
C469        C474   1.413       .  A
C469        C920   1.456       .  S
C470        C471   1.412       .  A
C470       C1086   1.451       .  S
C471        C472   1.413       .  A
C471        C958   1.456       .  S
C472        C473   1.413       .  A
C472        C921   1.455       .  S
C473        C474   1.413       .  A
C473        C916   1.453       .  S
C474        C917   1.455       .  S
C475        C476   1.405       .  A
C475        C480   1.405       .  A
C475        C918   1.444       .  S
C476        C477   1.403       .  A
C476        H481   1.083       .  S
C477        C478   1.390       .  A
C477        C914   1.430       .  S
C478        C479   1.390       .  A
C478        H482   1.085       .  S
C479        C480   1.403       .  A
C479        C911   1.429       .  S
C480        H483   1.083       .  S
O484        C492   1.266       .  A
O484       Co504   1.997       .  S
O485        C493   1.296       .  A
O485       Co505   2.109       .  S
O486        C494   1.263       .  A
O486       Co506   1.975       .  S
O487        C495   1.274       .  A
O487       Co507   1.986   1_565  S
O488        C494   1.255       .  A
O488       Co505   1.979       .  S
O489        C495   1.269       .  A
O489       Co504   2.002       .  S
O490        C493   1.263       .  A
O490       Co507   1.880       .  S
O491        C492   1.265       .  A
O491       Co506   1.966   1_565  S
C492        C928   1.421       .  S
C493        C905   1.421       .  S
C494        C907   1.433       .  S
C495        C925   1.438       .  S
O496        C509   1.261       .  A
O496       Co504   1.972       .  S
O497        C510   1.275       .  A
O497       Co505   1.989       .  S
O498        C511   1.265       .  A
O498       Co506   1.994   1_565  S
O499        C512   1.295       .  A
O499       Co507   2.107       .  S
O500        C512   1.263       .  A
O500       Co505   1.885       .  S
O501        C511   1.260       .  A
O501       Co504   1.954       .  S
O502        C509   1.255       .  A
O502       Co507   1.982   1_565  S
O503        C510   1.270       .  A
O503       Co506   2.007       .  S
Co504       O508   2.052   1_565  S
Co505       O508   2.013       .  S
Co506       O508   2.059       .  S
Co507       O508   2.016       .  S
C509        C944   1.433       .  S
C510        C909   1.442       .  S
C511       C1078   1.414       .  S
C512        C913   1.423       .  S
O513        C521   1.260       .  A
O513       Co533   1.954   1_554  S
O514        C522   1.263       .  A
O514       Co534   1.885       .  S
O515        C523   1.270       .  A
O515       Co535   2.007       .  S
O516        C524   1.255       .  A
O516       Co536   1.982       .  S
O517        C523   1.275       .  A
O517       Co534   1.989       .  S
O518        C524   1.261       .  A
O518       Co533   1.972   1_554  S
O519        C522   1.295       .  A
O519       Co536   2.107       .  S
O520        C521   1.265       .  A
O520       Co535   1.993       .  S
C521       C1088   1.414   1_554  S
C522        C924   1.423       .  S
C523        C897   1.442       .  S
C524        C904   1.433   1_554  S
O525        C538   1.269       .  A
O525       Co533   2.002       .  S
O526        C539   1.255       .  A
O526       Co534   1.979       .  S
O527        C540   1.265   1_554  A
O527       Co535   1.966       .  S
O528        C541   1.263       .  A
O528       Co536   1.880       .  S
O529        C541   1.296       .  A
O529       Co534   2.109       .  S
O530        C540   1.266       .  A
O530       Co533   1.997       .  S
O531        C538   1.274   1_554  A
O531       Co536   1.986       .  S
O532        C539   1.263       .  A
O532       Co535   1.975       .  S
Co533       O537   2.052   1_556  S
Co534       O537   2.013       .  S
Co535       O537   2.059       .  S
Co536       O537   2.015       .  S
C538        C893   1.438       .  S
C539        C899   1.433       .  S
C540        C895   1.421       .  S
C541        C901   1.421       .  S
C542        C543   1.381       .  A
C542        C547   1.413       .  A
C542        C900   1.437       .  S
C543        C544   1.381       .  A
C543        H548   1.087       .  S
C544        C545   1.413       .  A
C544        C908   1.437       .  S
C545        C546   1.418       .  A
C545        H549   1.082       .  S
C546        C547   1.418       .  A
C546        C891   1.470       .  S
C547        H550   1.082       .  S
C551        C552   1.385       .  A
C551        C556   1.401       .  A
C551        C890   1.423       .  S
C552        C553   1.384       .  A
C552        H557   1.086       .  S
C553        C554   1.406       .  A
C553        C896   1.428       .  S
C554        C555   1.408       .  A
C554        H558   1.083       .  S
C555        C556   1.405       .  A
C555        C887   1.445       .  S
C556        H559   1.083       .  S
C560        C561   1.383       .  A
C560        C565   1.413       .  A
C560        C885   1.438       .  S
C561        C562   1.383       .  A
C561        H566   1.087       .  S
C562        C563   1.416       .  A
C562        C894   1.444       .  S
C563        C564   1.420       .  A
C563        H567   1.082       .  S
C564        C565   1.416       .  A
C564        C883   1.474       .  S
C565        H568   1.082       .  S
O569        C577   1.266       .  A
O569       Co589   1.999   1_565  S
O570        C578   1.297       .  A
O570       Co590   2.113       .  S
O571        C579   1.260       .  A
O571       Co591   1.973       .  S
O572        C580   1.275       .  A
O572       Co592   1.990       .  S
O573        C579   1.253       .  A
O573       Co590   1.977   1_565  S
O574        C580   1.268       .  A
O574       Co589   2.000       .  S
O575        C578   1.263       .  A
O575       Co592   1.879       .  S
O576        C577   1.260       .  A
O576       Co591   1.954       .  S
C577       C1101   1.416       .  S
C578        C881   1.423       .  S
C579       C1028   1.431       .  S
C580        C880   1.439       .  S
O581        C594   1.262       .  A
O581       Co589   1.974       .  S
O582        C595   1.273       .  A
O582       Co590   1.986   1_565  S
O583        C596   1.265       .  A
O583       Co591   1.995       .  S
O584        C597   1.298       .  A
O584       Co592   2.116       .  S
O585        C597   1.260       .  A
O585       Co590   1.874       .  S
O586        C596   1.262       .  A
O586       Co589   1.958   1_565  S
O587        C594   1.256       .  A
O587       Co592   1.984       .  S
O588        C595   1.270       .  A
O588       Co591   2.006       .  S
Co589       O593   2.057       .  S
Co590       O593   2.010       .  S
Co591       O593   2.056   1_565  S
Co592       O593   2.013       .  S
C594        C886   1.434       .  S
C595       C1001   1.439       .  S
C596        C998   1.418       .  S
C597        C889   1.418       .  S
C598        C599   1.412       .  A
C598        C603   1.381       .  A
C598        C951   1.435       .  S
C599        C600   1.416       .  A
C599        H604   1.082       .  S
C600        C601   1.417       .  A
C600        C877   1.468       .  S
C601        C602   1.412       .  A
C601        H605   1.082       .  S
C602        C603   1.381       .  A
C602        C903   1.437       .  S
C603        H606   1.087       .  S
C607        C608   1.412       .  A
C607        C612   1.381       .  A
C607       C1010   1.435       .  S
C608        C609   1.416       .  A
C608        H613   1.082       .  S
C609        C610   1.417       .  A
C609        C875   1.468       .  S
C610        C611   1.412       .  A
C610        H614   1.082       .  S
C611        C612   1.381       .  A
C611        C874   1.437       .  S
C612        H615   1.087       .  S
C616        C617   1.432       .  A
C616        C621   1.432       .  A
C616       C1060   1.488       .  S
C617        C618   1.434       .  A
C617        C878   1.477       .  S
C618        C619   1.436       .  A
C618        C884   1.482       .  S
C619        C620   1.436       .  A
C619        C872   1.486       .  S
C620        C621   1.434       .  A
C620        C869   1.482       .  S
C621        C876   1.477       .  S
C622        C623   1.419       .  A
C622        C627   1.419       .  A
C622        C871   1.479       .  S
C623        C624   1.417       .  A
C623        H628   1.082       .  S
C624        C625   1.386       .  A
C624        C879   1.446       .  S
C625        C626   1.386       .  A
C625        H629   1.086       .  S
C626        C627   1.416       .  A
C626        C868   1.446       .  S
C627        H630   1.082       .  S
O631        C639   1.262       .  A
O631       Co651   1.958   1_565  S
O632        C640   1.260       .  A
O632       Co652   1.874       .  S
O633        C641   1.270       .  A
O633       Co653   2.005       .  S
O634        C642   1.256       .  A
O634       Co654   1.984       .  S
O635        C641   1.273       .  A
O635       Co652   1.986   1_565  S
O636        C642   1.262       .  A
O636       Co651   1.974       .  S
O637        C640   1.298       .  A
O637       Co654   2.116       .  S
O638        C639   1.265       .  A
O638       Co653   1.995       .  S
C639       C1066   1.418       .  S
C640        C865   1.418       .  S
C641       C1071   1.439       .  S
C642        C864   1.434       .  S
O643        C656   1.268       .  A
O643       Co651   2.000       .  S
O644        C657   1.253       .  A
O644       Co652   1.977   1_565  S
O645        C658   1.260       .  A
O645       Co653   1.954       .  S
O646        C659   1.263       .  A
O646       Co654   1.879       .  S
O647        C659   1.297       .  A
O647       Co652   2.113       .  S
O648        C658   1.266       .  A
O648       Co651   1.999   1_565  S
O649        C656   1.275       .  A
O649       Co654   1.990       .  S
O650        C657   1.260       .  A
O650       Co653   1.973       .  S
Co651       O655   2.057       .  S
Co652       O655   2.010       .  S
Co653       O655   2.056   1_565  S
Co654       O655   2.013       .  S
C656        C867   1.439       .  S
C657        C941   1.431       .  S
C658       C1099   1.416       .  S
C659        C912   1.423       .  S
C660        C661   1.401       .  A
C660        C665   1.385       .  A
C660        C866   1.423       .  S
C661        C662   1.405       .  A
C661        H666   1.083       .  S
C662        C663   1.408       .  A
C662        C919   1.445       .  S
C663        C664   1.406       .  A
C663        H667   1.083       .  S
C664        C665   1.384       .  A
C664        C861   1.428       .  S
C665        H668   1.086       .  S
C669        C670   1.413       .  A
C669        C674   1.383       .  A
C669        C863   1.438       .  S
C670        C671   1.416       .  A
C670        H675   1.082       .  S
C671        C672   1.420       .  A
C671        C870   1.474       .  S
C672        C673   1.416       .  A
C672        H676   1.082       .  S
C673        C674   1.383       .  A
C673        C859   1.444       .  S
C674        H677   1.087       .  S
C678        C679   1.390       .  A
C678        C683   1.403       .  A
C678        C857   1.430       .  S
C679        C680   1.390       .  A
C679        H684   1.085       .  S
C680        C681   1.403       .  A
C680        C882   1.429       .  S
C681        C682   1.405       .  A
C681        H685   1.083       .  S
C682        C683   1.405       .  A
C682        C856   1.444       .  S
C683        H686   1.083       .  S
C687        C688   1.413       .  A
C687        C692   1.413       .  A
C687        C853   1.455       .  S
C688        C689   1.412       .  A
C688       C1006   1.456       .  S
C689        C690   1.412       .  A
C689       C1092   1.451       .  S
C690        C691   1.413       .  A
C690        C888   1.456       .  S
C691        C692   1.413       .  A
C691        C855   1.455       .  S
C692        C852   1.453       .  S
O693        C701   1.260       .  A
O693       Co713   1.954       .  S
O694        C702   1.263       .  A
O694       Co714   1.884       .  S
O695        C703   1.270       .  A
O695       Co715   2.007       .  S
O696        C704   1.255       .  A
O696       Co716   1.982   1_565  S
O697        C703   1.275       .  A
O697       Co714   1.989       .  S
O698        C704   1.261       .  A
O698       Co713   1.972       .  S
O699        C702   1.295       .  A
O699       Co716   2.107       .  S
O700        C701   1.265       .  A
O700       Co715   1.993   1_565  S
C701       C1076   1.414       .  S
C702        C858   1.423       .  S
C703        C850   1.442       .  S
C704       C1025   1.433       .  S
O705        C718   1.269       .  A
O705       Co713   2.002       .  S
O706        C719   1.255       .  A
O706       Co714   1.979       .  S
O707        C720   1.265       .  A
O707       Co715   1.966   1_565  S
O708        C721   1.263       .  A
O708       Co716   1.880       .  S
O709        C721   1.296       .  A
O709       Co714   2.109       .  S
O710        C720   1.266       .  A
O710       Co713   1.997       .  S
O711        C718   1.274       .  A
O711       Co716   1.986   1_565  S
O712        C719   1.263       .  A
O712       Co715   1.975       .  S
Co713       O717   2.051   1_565  S
Co714       O717   2.013       .  S
Co715       O717   2.059       .  S
Co716       O717   2.015       .  S
C718       C1048   1.438       .  S
C719        C846   1.433       .  S
C720       C1054   1.421       .  S
C721        C848   1.421       .  S
O722        C730   1.265       .  A
O722       Co742   1.993   1_655  S
O723        C731   1.295       .  A
O723       Co743   2.107       .  S
O724        C732   1.261       .  A
O724       Co744   1.972       .  S
O725        C733   1.275       .  A
O725       Co745   1.989       .  S
O726        C732   1.255       .  A
O726       Co743   1.982   1_655  S
O727        C733   1.270       .  A
O727       Co742   2.007       .  S
O728        C731   1.263       .  A
O728       Co745   1.884       .  S
O729        C730   1.260       .  A
O729       Co744   1.954       .  S
C730       C1082   1.414       .  S
C731        C837   1.423       .  S
C732        C873   1.433       .  S
C733        C839   1.442       .  S
O734        C747   1.263       .  A
O734       Co742   1.975       .  S
O735        C748   1.274       .  A
O735       Co743   1.986   1_655  S
O736        C749   1.266       .  A
O736       Co744   1.997       .  S
O737        C750   1.296       .  A
O737       Co745   2.109       .  S
O738        C750   1.263       .  A
O738       Co743   1.880       .  S
O739        C749   1.265       .  A
O739       Co742   1.966   1_655  S
O740        C747   1.255       .  A
O740       Co745   1.979       .  S
O741        C748   1.269       .  A
O741       Co744   2.002       .  S
Co742       O746   2.059       .  S
Co743       O746   2.016       .  S
Co744       O746   2.051   1_655  S
Co745       O746   2.013       .  S
C747        C844   1.433       .  S
C748        C860   1.438       .  S
C749        C862   1.421       .  S
C750        C842   1.421       .  S
C751        C752   1.381       .  A
C751        C756   1.413       .  A
C751        C845   1.437       .  S
C752        C753   1.381       .  A
C752        H757   1.087       .  S
C753        C754   1.413       .  A
C753        C843   1.437       .  S
C754        C755   1.418       .  A
C754        H758   1.082       .  S
C755        C756   1.418       .  A
C755        C836   1.470       .  S
C756        H759   1.082       .  S
C760        C761   1.390       .  A
C760        C765   1.403       .  A
C760        C838   1.430       .  S
C761        C762   1.390       .  A
C761        H766   1.085       .  S
C762        C763   1.403       .  A
C762       C1011   1.429       .  S
C763        C764   1.405       .  A
C763        H767   1.083       .  S
C764        C765   1.405       .  A
C764        C854   1.444       .  S
C765        H768   1.083       .  S
C769        C770   1.404       .  A
C769        C774   1.404       .  A
C769        C851   1.442       .  S
C770        C771   1.402       .  A
C770        H775   1.083       .  S
C771        C772   1.389       .  A
C771        C847   1.428       .  S
C772        C773   1.389       .  A
C772        H776   1.085       .  S
C773        C774   1.402       .  A
C773        C841   1.428       .  S
C774        H777   1.083       .  S
C778        C779   1.404       .  A
C778        C783   1.404       .  A
C778        C915   1.442       .  S
C779        C780   1.402       .  A
C779        H784   1.083       .  S
C780        C781   1.390       .  A
C780        C906   1.428       .  S
C781        C782   1.390       .  A
C781        H785   1.085       .  S
C782        C783   1.402       .  A
C782        C902   1.428       .  S
C783        H786   1.083       .  S
C787        C788   1.404       .  A
C787        C792   1.404       .  A
C787        C985   1.442       .  S
C788        C789   1.402       .  A
C788        H793   1.083       .  S
C789        C790   1.389       .  A
C789        C976   1.428       .  S
C790        C791   1.389       .  A
C790        H794   1.085       .  S
C791        C792   1.402       .  A
C791        C972   1.428       .  S
C792        H795   1.083       .  S
C796        C797   1.421       .  A
C796        C801   1.421       .  A
C796        C833   1.483       .  S
C797        C798   1.418       .  A
C797        H802   1.082       .  S
C798        C799   1.386       .  A
C798        C979   1.449       .  S
C799        C800   1.386       .  A
C799        H803   1.086       .  S
C800        C801   1.418       .  A
C800        C898   1.449       .  S
C801        H804   1.082       .  S
C805        C806   1.421       .  A
C805        C810   1.421       .  A
C805        C832   1.483       .  S
C806        C807   1.418       .  A
C806        H811   1.082       .  S
C807        C808   1.386       .  A
C807        C910   1.449       .  S
C808        C809   1.386       .  A
C808        H812   1.086       .  S
C809        C810   1.418       .  A
C809        C849   1.449       .  S
C810        H813   1.082       .  S
C814        C815   1.421       .  A
C814        C819   1.421       .  A
C814        C829   1.483       .  S
C815        C816   1.418       .  A
C815        H820   1.082       .  S
C816        C817   1.386       .  A
C816        C840   1.449       .  S
C817        C818   1.386       .  A
C817        H821   1.086       .  S
C818        C819   1.418       .  A
C818        C967   1.449       .  S
C819        H822   1.082       .  S
C823        C824   1.436       .  A
C823        C828   1.436       .  A
C823        C830   1.491       .  S
C824        C825   1.436       .  A
C824        C962   1.478       .  S
C825        C826   1.436       .  A
C825        C834   1.491       .  S
C826        C827   1.436       .  A
C826        C892   1.478       .  S
C827        C828   1.436       .  A
C827        C831   1.491       .  S
C828        C835   1.478       .  S
C829        C830   1.232       .  T
C831        C832   1.232       .  T
C833        C834   1.232       .  T
C835        C836   1.225       .  T
C837        C838   1.200       .  T
C839        C840   1.213       .  T
C841        C842   1.198       .  T
C843        C844   1.207       .  T
C845        C846   1.207       .  T
C847        C848   1.198       .  T
C849        C850   1.213       .  T
C851        C852   1.208       .  T
C853        C854   1.209       .  T
C855        C856   1.209       .  T
C857        C858   1.200       .  T
C859        C860   1.210       .  T
C861        C862   1.200       .  T
C863        C864   1.207       .  T
C865        C866   1.196       .  T
C867        C868   1.211       .  T
C869        C870   1.227       .  T
C871        C872   1.230       .  T
C873        C874   1.207       .  T
C875        C876   1.223       .  T
C877        C878   1.223       .  T
C879        C880   1.211       .  T
C881        C882   1.200       .  T
C883        C884   1.227       .  T
C885        C886   1.207       .  T
C887        C888   1.209       .  T
C889        C890   1.196       .  T
C891        C892   1.225       .  T
C893        C894   1.210       .  T
C895        C896   1.200       .  T
C897        C898   1.213       .  T
C899        C900   1.207       .  T
C901        C902   1.198       .  T
C903        C904   1.207       .  T
C905        C906   1.198       .  T
C907        C908   1.207       .  T
C909        C910   1.213       .  T
C911        C912   1.200       .  T
C913        C914   1.200       .  T
C915        C916   1.208       .  T
C917        C918   1.209       .  T
C919        C920   1.209       .  T
C921        C922   1.209       .  T
C923        C924   1.200       .  T
C925        C926   1.210       .  T
C927        C928   1.200       .  T
C929        C930   1.207       .  T
C931        C932   1.196       .  T
C933        C934   1.211       .  T
C935        C936   1.227       .  T
C937        C938   1.230       .  T
C939        C940   1.223       .  T
C941        C942   1.205       .  T
C943        C944   1.207       .  T
C945        C946   1.223       .  T
C947        C948   1.211       .  T
C949        C950   1.200       .  T
C951        C952   1.205       .  T
C953        C954   1.227       .  T
C955        C956   1.207       .  T
C957        C958   1.209       .  T
C959        C960   1.196       .  T
C961        C962   1.225       .  T
C963        C964   1.210       .  T
C965        C966   1.200       .  T
C967        C968   1.213       .  T
C969        C970   1.207       .  T
C971        C972   1.198       .  T
C973        C974   1.207       .  T
C975        C976   1.198       .  T
C977        C978   1.207       .  T
C979        C980   1.213       .  T
C981        C982   1.200       .  T
C983        C984   1.200       .  T
C985        C986   1.208       .  T
C987        C988   1.209       .  T
C989        C990   1.209       .  T
C991        C992   1.209       .  T
C993        C994   1.200       .  T
C995        C996   1.198       .  T
C997        C998   1.198       .  T
C999       C1000   1.210       .  T
C1001      C1002   1.210       .  T
C1003      C1004   1.210       .  T
C1005      C1006   1.209       .  T
C1007      C1008   1.200       .  T
C1009      C1010   1.205       .  T
C1011      C1012   1.200       .  T
C1013      C1014   1.207       .  T
C1015      C1016   1.196       .  T
C1017      C1018   1.211       .  T
C1019      C1020   1.227       .  T
C1021      C1022   1.230       .  T
C1023      C1024   1.230       .  T
C1025      C1026   1.207       .  T
C1027      C1028   1.205       .  T
C1029      C1030   1.223       .  T
C1031      C1032   1.205       .  T
C1033      C1034   1.207       .  T
C1035      C1036   1.223       .  T
C1037      C1038   1.211       .  T
C1039      C1040   1.200       .  T
C1041      C1042   1.205       .  T
C1043      C1044   1.227       .  T
C1045      C1046   1.207       .  T
C1047      C1048   1.210       .  T
C1049      C1050   1.209       .  T
C1051      C1052   1.196       .  T
C1053      C1054   1.200       .  T
C1055      C1056   1.198       .  T
C1057      C1058   1.198       .  T
C1059      C1060   1.230       .  T
C1061      C1062   1.210       .  T
C1063      C1064   1.210       .  T
C1065      C1066   1.198       .  T
C1067      C1068   1.198       .  T
C1069      C1070   1.230       .  T
C1071      C1072   1.210       .  T
C1073      C1074   1.210       .  T
C1075      C1076   1.195       .  T
C1077      C1078   1.195       .  T
C1079      C1080   1.206       .  T
C1081      C1082   1.195       .  T
C1083      C1084   1.195       .  T
C1085      C1086   1.206       .  T
C1087      C1088   1.195       .  T
C1089      C1090   1.195       .  T
C1091      C1092   1.206       .  T
C1093      C1094   1.212       .  T
C1095      C1096   1.212       .  T
C1097      C1098   1.212       .  T
C1099      C1100   1.196       .  T
C1101      C1102   1.196       .  T
C1103      C1104   1.209       .  T
C1105      C1106   1.196       .  T
C1107      C1108   1.196       .  T
C1109      C1110   1.209       .  T
C1111      C1112   1.196       .  T
C1113      C1114   1.196       .  T
C1115      C1116   1.209       .  T
