geometry optimzed in LAMMPS
_audit_creation_date              2020-11-30 
_audit_creation_method            'lammps2cif' 
_symmetry_space_group_name_H-M    'P1' 
_symmetry_Int_Tables_number       1 
_symmetry_cell_setting            triclinic 
loop_ 
_symmetry_equiv_pos_as_xyz 
  x,y,z 
_cell_length_a                    31.35268888387879 
_cell_length_b                    67.85247853955075 
_cell_length_c                    29.115153499297477 
_cell_angle_alpha                 89.9862785962639 
_cell_angle_beta                  115.59651817058987 
_cell_angle_gamma                 90.05167856294192 
loop_ 
_atom_site_label 
_atom_site_type_symbol 
_atom_site_fract_x 
_atom_site_fract_y 
_atom_site_fract_z 
_atom_site_charge 
C1          C  0.66656961  0.31027418  0.10069954     0.03160
C2          C  0.67939953  0.30450718  0.06193121    -0.12990
C3          C  0.71006398  0.28861744  0.06837445     0.00660
C4          C  0.72496475  0.27719639  0.11265873    -0.11520
C5          C  0.71235099  0.28248482  0.15176907     0.03150
C6          C  0.68465765  0.29939150  0.14629276    -0.10940
H7          H  0.66621438  0.31263784  0.02652103     0.08740
H8          H  0.74607343  0.26413470  0.11646628     0.06270
H9          H  0.67769456  0.30399080  0.17796971     0.06120
C10         C  0.82311647  0.30869158  0.88120554     0.03160
C11         C  0.80869926  0.30426724  0.91939104    -0.12990
C12         C  0.77804618  0.28840516  0.91366590     0.00660
C13         C  0.76365657  0.27645090  0.87034661    -0.11520
C14         C  0.77692483  0.28095453  0.83123213     0.03150
C15         C  0.80664991  0.29719748  0.83685305    -0.10940
H16         H  0.82046163  0.31350071  0.95302760     0.08740
H17         H  0.74180144  0.26365346  0.86683975     0.06270
H18         H  0.81662366  0.30106499  0.80670964     0.06120
C19         C  0.65208183  0.20534947  0.60066972     0.03160
C20         C  0.66929850  0.21745610  0.64410621    -0.12990
C21         C  0.69783373  0.23390077  0.64742237     0.00660
C22         C  0.71007852  0.23790188  0.60734273    -0.11520
C23         C  0.69480663  0.22547894  0.56483900     0.03150
C24         C  0.66436703  0.20977190  0.56078940    -0.10940
H25         H  0.66144347  0.21380632  0.67586492     0.08740
H26         H  0.73280085  0.25030644  0.60986494     0.06270
H27         H  0.65120136  0.20069162  0.52685776     0.06120
C28         C  0.80584027  0.20337193  0.37675274     0.03160
C29         C  0.79198429  0.21537050  0.33354691    -0.12990
C30         C  0.76269431  0.23181305  0.32753604     0.00660
C31         C  0.74750373  0.23609555  0.36541894    -0.11520
C32         C  0.76000523  0.22377543  0.40794333     0.03150
C33         C  0.78926131  0.20749807  0.41324611    -0.10940
H34         H  0.80457485  0.21207308  0.30510535     0.08740
H35         H  0.72657199  0.24915668  0.36224104     0.06270
H36         H  0.79923270  0.19788777  0.44602226     0.06120
N37         N  0.82809270  0.91768392  0.51847282    -0.27260
N38         N  0.82396963  0.93698365  0.51194238    -0.35120
C39         C  0.78099939  0.94261952  0.50600247     0.01080
C40         C  0.75634170  0.92613559  0.50845981     0.07100
C41         C  0.78706799  0.91046250  0.51620426    -0.06000
H42         H  0.76865394  0.95770552  0.50014421     0.07770
H43         H  0.78053088  0.89510830  0.52093967     0.08970
Cu44       Cu  0.87543384  0.95549624  0.51066700     0.44170
Cu45       Cu  0.89098003  0.90310671  0.53248315     0.41990
Cu46       Cu  0.98599320  0.93537685  0.53078732     0.43880
N47         N  0.92901803  0.97246089  0.50871770    -0.34650
N48         N  0.97055605  0.96512423  0.51646028    -0.28900
C49         C  0.99801142  0.97979719  0.51317397    -0.05000
C50         C  0.97215540  0.99712821  0.50262689     0.07210
C51         C  0.92858854  0.99191895  0.50002713     0.01010
H52         H  0.03394739  0.97795758  0.51789834     0.08660
H53         H  0.89879380  0.00152446  0.49256937     0.07740
N54         N  0.99267303  0.90536207  0.54634095    -0.36100
N55         N  0.95913106  0.89382295  0.54757315    -0.28280
C56         C  0.97631882  0.87541361  0.55954446    -0.03520
C57         C  0.02295017  0.87529057  0.56635757     0.05090
C58         C  0.03176359  0.89457044  0.55714731     0.03190
H59         H  0.95620482  0.86302458  0.56307381     0.08290
H60         H  0.06378072  0.90039348  0.55694676     0.07120
N61         N  0.63495749  0.91833761  0.49084080    -0.27260
N62         N  0.64035013  0.93746111  0.50016555    -0.35120
C63         C  0.68426254  0.94277168  0.50864684     0.01080
C64         C  0.70810119  0.92624259  0.50481151     0.07100
C65         C  0.67595060  0.91089427  0.49368423    -0.06000
H66         H  0.69757875  0.95770803  0.51639501     0.07770
H67         H  0.68134731  0.89567819  0.48643602     0.08970
Cu68       Cu  0.58850282  0.95620514  0.49962381     0.44170
Cu69       Cu  0.57028586  0.90442473  0.47108639     0.41990
Cu70       Cu  0.47287027  0.93727782  0.46307809     0.43880
N71         N  0.53367262  0.97335608  0.49786950    -0.34650
N72         N  0.49055098  0.96644072  0.48445266    -0.28900
C73         C  0.46300851  0.98108922  0.48754927    -0.05000
C74         C  0.49033789  0.99799033  0.50362378     0.07210
C75         C  0.53491584  0.99254521  0.50976504     0.01010
H76         H  0.42593387  0.97953500  0.47874179     0.08660
H77         H  0.56603007  0.00178802  0.52207073     0.07740
N78         N  0.46574204  0.90740414  0.44575064    -0.36100
N79         N  0.50064991  0.89560132  0.44923872    -0.28280
C80         C  0.48377467  0.87714606  0.43729123    -0.03520
C81         C  0.43621000  0.87733297  0.42617668     0.05090
C82         C  0.42583198  0.89674953  0.43133781     0.03190
H83         H  0.50476324  0.86446340  0.43753399     0.08290
H84         H  0.39205594  0.90261165  0.42646200     0.07120
N85         N  0.32729120  0.09734792  0.51628980    -0.27260
N86         N  0.32399907  0.07794254  0.51264402    -0.35120
C87         C  0.28105676  0.07231302  0.50685507     0.01080
C88         C  0.25557728  0.08890457  0.50652284     0.07100
C89         C  0.28579567  0.10463606  0.51241941    -0.06000
H90         H  0.26936086  0.05714816  0.50315894     0.07770
H91         H  0.27859811  0.12009429  0.51485281     0.08970
Cu92       Cu  0.37678026  0.05928048  0.51564577     0.44170
Cu93       Cu  0.39000049  0.11193873  0.52956476     0.41990
Cu94       Cu  0.49037599  0.07886928  0.54721146     0.43880
N95         N  0.43170654  0.04218177  0.51776260    -0.34650
N96         N  0.47436024  0.04931615  0.52961346    -0.28900
C97         C  0.50208088  0.03469319  0.52672315    -0.05000
C98         C  0.47527427  0.01759858  0.51230573     0.07210
C99         C  0.43087105  0.02290068  0.50698969     0.01010
H100        H  0.53877338  0.03643233  0.53407052     0.08660
H101        H  0.40008121  0.01351933  0.49577071     0.07740
N102        N  0.49526337  0.10919017  0.55830825    -0.36100
N103        N  0.45934138  0.12109223  0.55026700    -0.28280
C104        C  0.47512458  0.13979923  0.55808038    -0.03520
C105        C  0.52358528  0.13977728  0.57263339     0.05090
C106        C  0.53475546  0.12001869  0.57202989     0.03190
H107        H  0.45205372  0.15231057  0.55127961     0.08290
H108        H  0.56913420  0.11387751  0.58029699     0.07120
N109        N  0.13376591  0.09683854  0.48726085    -0.27260
N110        N  0.13890686  0.07771498  0.49656088    -0.35120
C111        C  0.18289900  0.07236124  0.50560096     0.01080
C112        C  0.20704854  0.08885630  0.50205087     0.07100
C113        C  0.17499048  0.10423647  0.49056501    -0.06000
H114        H  0.19602364  0.05741044  0.51347063     0.07770
H115        H  0.18066120  0.11945240  0.48353943     0.08970
Cu116      Cu  0.08656236  0.05900783  0.49495015     0.44170
Cu117      Cu  0.06916050  0.11077867  0.46729575     0.41990
Cu118      Cu  0.97120666  0.07799980  0.45904902     0.43880
N119        N  0.03136713  0.04175072  0.49183783    -0.34650
N120        N  0.98839164  0.04869837  0.47898105    -0.28900
C121        C  0.96057160  0.03392848  0.48099129    -0.05000
C122        C  0.98755019  0.01691024  0.49560432     0.07210
C123        C  0.03221359  0.02241706  0.50212243     0.01010
H124        H  0.92349879  0.03545552  0.47219214     0.08660
H125        H  0.06313131  0.01311883  0.51362764     0.07740
N126        N  0.96456950  0.10790980  0.44213653    -0.36100
N127        N  0.99964566  0.11965969  0.44571561    -0.28280
C128        C  0.98309390  0.13816112  0.43419844    -0.03520
C129        C  0.93555429  0.13805887  0.42317882     0.05090
C130        C  0.92485614  0.11864881  0.42803371     0.03270
H131        H  0.00431821  0.15082676  0.43479465     0.08290
H132        H  0.89104587  0.11285518  0.42331922     0.07120
C133        C  0.16606860  0.70443902  0.10049408     0.03160
C134        C  0.18190103  0.70852213  0.06316754    -0.12990
C135        C  0.21157357  0.72464049  0.06800474     0.00660
C136        C  0.22350417  0.73748194  0.10958524    -0.11520
C137        C  0.20819394  0.73355914  0.14756972     0.03150
C138        C  0.18087950  0.71663666  0.14350259    -0.10940
H139        H  0.17158682  0.69891654  0.03034470     0.08740
H140        H  0.24508968  0.75033958  0.11260570     0.06270
H141        H  0.17207406  0.71280876  0.17444555     0.06120
C142        C  0.32255992  0.70586150  0.87604739     0.03160
C143        C  0.30704480  0.70922586  0.91382021    -0.12990
C144        C  0.27518643  0.72453726  0.90885219     0.00660
C145        C  0.25859392  0.73637266  0.86490361    -0.11520
C146        C  0.27281462  0.73269066  0.82603822     0.03150
C147        C  0.30559281  0.71765549  0.83231946    -0.10940
H148        H  0.31948804  0.69969705  0.94694165     0.08740
H149        H  0.23423108  0.74831550  0.86056319     0.06270
H150        H  0.31785707  0.71508233  0.80328549     0.06120
C151        C  0.30445858  0.81237294  0.37545036     0.03160
C152        C  0.29240580  0.80024171  0.33265766    -0.12990
C153        C  0.26328503  0.78364185  0.32565477     0.00660
C154        C  0.24592840  0.77947014  0.36192720    -0.11520
C155        C  0.25720284  0.79176100  0.40438038     0.03150
C156        C  0.28670232  0.80805763  0.41092431    -0.10940
H157        H  0.30573671  0.80377744  0.30495904     0.08740
H158        H  0.22440939  0.76648275  0.35756748     0.06270
H159        H  0.29590200  0.81750224  0.44390058     0.06120
C160        C  0.14589923  0.80824691  0.59653338     0.03160
C161        C  0.16279406  0.79609552  0.63955448    -0.12990
C162        C  0.19525344  0.78104637  0.64484435     0.00660
C163        C  0.20908102  0.77768474  0.60556753    -0.11520
C164        C  0.19266309  0.78994045  0.56235013     0.03150
C165        C  0.16103940  0.80523618  0.55835558    -0.10940
H166        H  0.15080449  0.79842806  0.66890059     0.08740
H167        H  0.23319489  0.76572707  0.60916426     0.06270
H168        H  0.14870037  0.81508883  0.52587193     0.06120
N169        N  0.83961393  0.59713224  0.99214562    -0.27260
N170        N  0.83460475  0.57784022  0.98564279    -0.35120
C171        C  0.79100591  0.57264182  0.97852727     0.01080
C172        C  0.76684290  0.58937112  0.98032928     0.07100
C173        C  0.79855967  0.60476035  0.98881742    -0.06000
H174        H  0.77811027  0.55762911  0.97303540     0.07770
H175        H  0.79281906  0.62016472  0.99391181     0.08970
Cu176      Cu  0.88615539  0.55846484  0.98820029     0.44170
Cu177      Cu  0.90406227  0.61108180  0.00923307     0.41990
Cu178      Cu  0.00164921  0.57657499  0.02686185     0.43880
N179        N  0.94085229  0.54062643  0.99238584    -0.34650
N180        N  0.98419766  0.54737336  0.00655583    -0.28900
C181        C  0.01189812  0.53257019  0.00468229    -0.05000
C182        C  0.98448285  0.51569291  0.98877092     0.07210
C183        C  0.93962631  0.52133447  0.98136808     0.01010
H184        H  0.04914345  0.53400798  0.01418994     0.08660
H185        H  0.90833066  0.51218207  0.96856269     0.07740
N186        N  0.00940615  0.60666113  0.04035108    -0.36100
N187        N  0.97457973  0.61918803  0.03219087    -0.28280
C188        C  0.99257769  0.63753733  0.04212104    -0.03520
C189        C  0.04114297  0.63662286  0.05736820     0.05090
C190        C  0.05029929  0.61665453  0.05631716     0.03190
H191        H  0.97148006  0.65061088  0.03776960     0.08290
H192        H  0.08405090  0.60959586  0.06665555     0.07120
N193        N  0.64601936  0.59783849  0.96462978    -0.27260
N194        N  0.65103954  0.57868208  0.97370964    -0.35120
C195        C  0.69451989  0.57318212  0.98112513     0.01080
C196        C  0.71860600  0.58957688  0.97689992     0.07100
C197        C  0.68696913  0.60508246  0.96663799    -0.06000
H198        H  0.70747627  0.55820218  0.98877319     0.07770
H199        H  0.69277366  0.62029977  0.95976338     0.08970
Cu200      Cu  0.59994816  0.55992530  0.97532615     0.44170
Cu201      Cu  0.58206543  0.61220228  0.94746134     0.41990
Cu202      Cu  0.48924906  0.57984228  0.95340343     0.43880
N203        N  0.54593989  0.54276704  0.97597456    -0.34650
N204        N  0.50429109  0.55014374  0.96760614    -0.28900
C205        C  0.47630151  0.53551406  0.96990722    -0.05000
C206        C  0.50187076  0.51812794  0.98046142     0.07210
C207        C  0.54588553  0.52327078  0.98409193     0.01010
H208        H  0.44018490  0.53742670  0.96450939     0.08660
H209        H  0.57565123  0.51360205  0.99193809     0.07740
N210        N  0.48108954  0.60958023  0.93553796    -0.36100
N211        N  0.51343530  0.62114814  0.93186366    -0.28280
C212        C  0.49483064  0.63925674  0.91781864    -0.03520
C213        C  0.44851442  0.63918414  0.91244300     0.05090
C214        C  0.44156431  0.62003864  0.92464286     0.03190
H215        H  0.51389103  0.65156440  0.91203301     0.08290
H216        H  0.41070901  0.61397897  0.92694898     0.07120
N217        N  0.00153098  0.46411845  0.96567740    -0.27260
N218        N  0.04347158  0.47152285  0.97510122    -0.35120
C219        C  0.04379937  0.49089132  0.98472483     0.01080
C220        C  0.99981590  0.49599559  0.98104060     0.07100
C221        C  0.97376371  0.47868082  0.96884087    -0.06000
H222        H  0.07389068  0.50050914  0.99368771     0.07770
H223        H  0.93752420  0.47676933  0.96304313     0.08970
Cu224      Cu  0.09826786  0.45492441  0.97467251     0.44170
Cu225      Cu  0.98605984  0.43438698  0.94998783     0.41990
Cu226      Cu  0.08399271  0.40277897  0.95315809     0.43880
N227        N  0.15096328  0.43671968  0.97504183    -0.34650
N228        N  0.14709975  0.41742084  0.96848813    -0.28900
C229        C  0.18852009  0.41027374  0.97179519    -0.05000
C230        C  0.21934120  0.42598781  0.98029418     0.07210
C231        C  0.19424967  0.44243646  0.98207151     0.01010
H232        H  0.19527338  0.39493652  0.96722471     0.08660
H233        H  0.20648880  0.45754584  0.98810039     0.07740
N234        N  0.01611338  0.39291611  0.93737892    -0.36100
N235        N  0.98126008  0.40418833  0.93634801    -0.28280
C236        C  0.94277624  0.39291382  0.92538340    -0.03520
C237        C  0.95383904  0.37360221  0.91964632     0.05090
C238        C  0.00053344  0.37422428  0.92697855     0.03190
H239        H  0.90927531  0.39834703  0.92250285     0.08290
H240        H  0.02163787  0.36217182  0.92393496     0.07120
N241        N  0.34094466  0.41814541  0.99818150    -0.27260
N242        N  0.33583806  0.43734218  0.98967636    -0.35120
C243        C  0.29206184  0.44268000  0.98162426     0.01080
C244        C  0.26793554  0.42613421  0.98483407     0.07100
C245        C  0.29982424  0.41072910  0.99520795    -0.06000
H246        H  0.27892048  0.45763841  0.97421910     0.07770
H247        H  0.29403216  0.39544002  0.00145425     0.08970
Cu248      Cu  0.38714729  0.45638005  0.98971268     0.44170
Cu249      Cu  0.40505399  0.40378226  0.01615416     0.41990
Cu250      Cu  0.50091474  0.43751106  0.02414947     0.43880
N251        N  0.44170206  0.47376339  0.99127120    -0.34650
N252        N  0.48450091  0.46670415  0.00387370    -0.28900
C253        C  0.51252567  0.48131125  0.00154040    -0.05000
C254        C  0.48587912  0.49839832  0.98698395     0.07210
C255        C  0.44113958  0.49307449  0.98078089     0.01010
H256        H  0.54955683  0.47964051  0.01029495     0.08660
H257        H  0.41047975  0.50250397  0.96965254     0.07740
N258        N  0.50888776  0.40765895  0.04002834    -0.36100
N259        N  0.47484197  0.39528724  0.03611045    -0.28280
C260        C  0.49316375  0.37699294  0.04706830    -0.03520
C261        C  0.54081929  0.37790280  0.05793502     0.05090
C262        C  0.54948305  0.39767515  0.05394415     0.03190
H263        H  0.47307363  0.36392112  0.04628231     0.08290
H264        H  0.58280574  0.40462247  0.06146484     0.07120
C265        C  0.17630128  0.78854789  0.47051639    -0.26290
C266        C  0.20938670  0.78753182  0.52191595    -0.14360
C267        C  0.25800532  0.78591807  0.53378275     0.36270
C268        C  0.27228428  0.78585083  0.49419408    -0.25740
C269        C  0.23935944  0.78786175  0.44311473    -0.14980
C270        C  0.19073642  0.78889596  0.43100819     0.37350
N271        N  0.15648334  0.79164051  0.37914518    -0.89230
H272        H  0.13899202  0.78967024  0.46123462     0.18470
H273        H  0.30963619  0.78523052  0.50332136     0.18460
N274        N  0.29293266  0.78540397  0.58590567    -0.88260
H275        H  0.12272836  0.79366157  0.37731932     0.35840
H276        H  0.15487596  0.77858950  0.35945172     0.40930
H277        H  0.29173076  0.79893034  0.60250204     0.40550
H278        H  0.32693894  0.78414844  0.58793161     0.35440
C279        C  0.33651997  0.67020654  0.87402852    -0.26290
C280        C  0.35503484  0.68932721  0.88177929    -0.14360
C281        C  0.40395265  0.69208872  0.89674010     0.36270
C282        C  0.43328322  0.67554322  0.90568133    -0.25740
C283        C  0.41515504  0.65622401  0.89948486    -0.14980
C284        C  0.36574602  0.65371123  0.88193463     0.37350
N285        N  0.34456698  0.63455361  0.87104763    -0.89230
H286        H  0.29889168  0.66805518  0.86171807     0.18470
H287        H  0.47084928  0.67797819  0.91889241     0.18460
N288        N  0.42546064  0.71129422  0.90496348    -0.88260
H289        H  0.31983020  0.63424640  0.83285379     0.35840
H290        H  0.32646058  0.63241734  0.89354972     0.40930
H291        H  0.40087680  0.72253280  0.89863230     0.40550
H292        H  0.43910233  0.71320873  0.87822735     0.35440
C293        C  0.26182528  0.76510589  0.78296806    -0.26290
C294        C  0.25345721  0.74473661  0.77906294    -0.14360
C295        C  0.22556904  0.73637414  0.73072545     0.36270
C296        C  0.20696595  0.74849028  0.68762604    -0.25740
C297        C  0.21517091  0.76887744  0.69159064    -0.14980
C298        C  0.24325841  0.77721508  0.73989789     0.37350
N299        N  0.25488884  0.79777170  0.74615756    -0.89230
H300        H  0.28328890  0.77162461  0.81981364     0.18470
H301        H  0.18548520  0.74197961  0.65077662     0.18460
N302        N  0.21413903  0.71580022  0.72448403    -0.88260
H303        H  0.22394235  0.80595644  0.73583382     0.35840
H304        H  0.27049146  0.80153065  0.72205571     0.40930
H305        H  0.19837023  0.71201674  0.74841340     0.40550
H306        H  0.24522416  0.70768272  0.73511506     0.35440
C307        C  0.14921523  0.66883203  0.08177191    -0.26290
C308        C  0.13549683  0.68693056  0.09446322    -0.14360
C309        C  0.09109148  0.68822020  0.09603202     0.36270
C310        C  0.06193753  0.67158078  0.08499917    -0.25740
C311        C  0.07499500  0.65353062  0.07096898    -0.14980
C312        C  0.11929440  0.65229359  0.06890474     0.37350
N313        N  0.13325154  0.63465495  0.05173487    -0.89230
H314        H  0.18301553  0.66779682  0.08010869     0.18470
H315        H  0.02838647  0.67298188  0.08696835     0.18460
N316        N  0.07330206  0.70636862  0.10602016    -0.88260
H317        H  0.16711869  0.63614373  0.05348264     0.35840
H318        H  0.11015222  0.63278344  0.01328059     0.40930
H319        H  0.07489649  0.71719181  0.08125039     0.40550
H320        H  0.09403986  0.71065501  0.14354631     0.35440
C321        C  0.26935802  0.75208670  0.22017125    -0.26290
C322        C  0.22172724  0.74678920  0.19235633    -0.14360
C323        C  0.18778144  0.75378581  0.20821936     0.36270
C324        C  0.20234002  0.76565471  0.25189893    -0.25740
C325        C  0.25002296  0.77085484  0.28000939    -0.14980
C326        C  0.28398272  0.76388148  0.26406867     0.37350
N327        N  0.33327913  0.76838226  0.29310362    -0.89230
H328        H  0.29545661  0.74654378  0.20832655     0.18470
H329        H  0.17615360  0.77116702  0.26365051     0.18460
N330        N  0.13856288  0.74904818  0.17952456    -0.88260
H331        H  0.35349195  0.76219102  0.27613471     0.35840
H332        H  0.34430131  0.76170638  0.32877263     0.40930
H333        H  0.12721622  0.75554068  0.14360337     0.40550
H334        H  0.11829482  0.75524118  0.19642381     0.35440
C335        C  0.19625885  0.72905285  0.97771411    -0.26290
C336        C  0.22952329  0.72762347  0.02888566    -0.14360
C337        C  0.27834747  0.72694822  0.04042483     0.36270
C338        C  0.29210070  0.72726117  0.00057534    -0.25740
C339        C  0.25869330  0.72747067  0.94930510    -0.14980
C340        C  0.21013386  0.72866454  0.93780238     0.37350
N341        N  0.17492828  0.72849967  0.88579298    -0.89230
H342        H  0.15894239  0.72953168  0.96880259     0.18470
H343        H  0.32944893  0.72638482  0.00980395     0.18460
N344        N  0.31491198  0.72450921  0.09129327    -0.88260
H345        H  0.14096561  0.72951688  0.88399245     0.35840
H346        H  0.17681325  0.71484028  0.87015629     0.40930
H347        H  0.30153644  0.72216982  0.11794169     0.40550
H348        H  0.33473126  0.73751851  0.10135160     0.35440
C349        C  0.38011126  0.82818213  0.43084408    -0.26290
C350        C  0.33812325  0.82892155  0.38572455    -0.14360
C351        C  0.32871747  0.84567165  0.35377141     0.36270
C352        C  0.36172126  0.86110731  0.36798923    -0.25740
C353        C  0.40353680  0.86039170  0.41338453    -0.14980
C354        C  0.41249184  0.84377517  0.44571199     0.37350
N355        N  0.45276872  0.84237051  0.49452098    -0.89230
H356        H  0.38723725  0.81548165  0.45569142     0.18470
H357        H  0.35438488  0.87392422  0.34351050     0.18460
N358        N  0.28559514  0.84802299  0.30811507    -0.88260
H359        H  0.43999509  0.84085638  0.52210553     0.35840
H360        H  0.47279518  0.85525368  0.50403568     0.40930
H361        H  0.26181216  0.83654851  0.30289087     0.40550
H362        H  0.29426088  0.84777390  0.27724269     0.35440
C363        C  0.13357904  0.84333497  0.60920372    -0.26290
C364        C  0.11374402  0.82473745  0.59202130    -0.14360
C365        C  0.06404796  0.82251338  0.56884706     0.36270
C366        C  0.03545277  0.83914683  0.56201075    -0.25740
C367        C  0.05509293  0.85799076  0.57771372    -0.14980
C368        C  0.10490720  0.85996256  0.60296600     0.37350
N369        N  0.12634100  0.87869921  0.62282677    -0.89230
H370        H  0.17174481  0.84486159  0.62745738     0.18470
H371        H  0.99743191  0.83730314  0.54298338     0.18460
N372        N  0.04134250  0.80375359  0.55153178    -0.88260
H373        H  0.16322432  0.87758921  0.63987254     0.35840
H374        H  0.11655563  0.88263423  0.65166300     0.40930
H375        H  0.06577496  0.79234686  0.55927329     0.40550
H376        H  0.02241228  0.80449676  0.51192910     0.35440
C377        C  0.88209752  0.18744800  0.43062912    -0.26290
C378        C  0.83965354  0.18700709  0.38606040    -0.14360
C379        C  0.82891993  0.17053888  0.35349731     0.36270
C380        C  0.86102709  0.15472281  0.36656913    -0.25740
C381        C  0.90341426  0.15512041  0.41145970    -0.14980
C382        C  0.91389888  0.17171289  0.44408267     0.37350
N383        N  0.95469896  0.17276652  0.49243387    -0.89230
H384        H  0.89001632  0.19999506  0.45606577     0.18470
H385        H  0.85296797  0.14199367  0.34173242     0.18460
N386        N  0.78523098  0.16979833  0.30798948    -0.88260
H387        H  0.97768135  0.18330667  0.48938830     0.35840
H388        H  0.97285652  0.15944042  0.50280737     0.40930
H389        H  0.75761429  0.16957556  0.31901640     0.40550
H390        H  0.78283616  0.15667535  0.28819392     0.35440
C391        C  0.59515873  0.15449855  0.57000354    -0.26290
C392        C  0.55651494  0.15678486  0.58199396    -0.14360
C393        C  0.55194327  0.17483407  0.60411872     0.36270
C394        C  0.58393735  0.19019642  0.61075775    -0.25740
C395        C  0.62127858  0.18810041  0.59675007    -0.14980
C396        C  0.62801382  0.16971686  0.57809519     0.37350
N397        N  0.66857531  0.16643429  0.56815037    -0.89230
H398        H  0.59987647  0.14074918  0.55393192     0.18470
H399        H  0.57885977  0.20408631  0.62608585     0.18460
N400        N  0.51637678  0.17800677  0.62175384    -0.88260
H401        H  0.66834265  0.15213043  0.55470134     0.35840
H402        H  0.69868315  0.16756496  0.60284419     0.40930
H403        H  0.51649469  0.16620306  0.64489495     0.40550
H404        H  0.48350764  0.17918955  0.59052360     0.35440
C405        C  0.68017107  0.23016119  0.47476933    -0.26290
C406        C  0.71288472  0.22787249  0.52589218    -0.14360
C407        C  0.76170143  0.22626524  0.53808070     0.36270
C408        C  0.77608728  0.22661053  0.49890145    -0.25740
C409        C  0.74319065  0.22753201  0.44758947    -0.14980
C410        C  0.69468736  0.22975354  0.43534175     0.37350
N411        N  0.66020508  0.23068332  0.38307371    -0.89230
H412        H  0.64287825  0.23141737  0.46550834     0.18470
H413        H  0.81339153  0.22495202  0.50856523     0.18460
N414        N  0.79745694  0.22266485  0.58882744    -0.88260
H415        H  0.62619258  0.23239154  0.38075814     0.35840
H416        H  0.66053731  0.21713129  0.36614623     0.40930
H417        H  0.78340938  0.21915040  0.61433220     0.40550
H418        H  0.81745599  0.23554242  0.60162116     0.35440
C419        C  0.87467475  0.35847803  0.87142423    -0.26290
C420        C  0.92172894  0.35635755  0.90803054    -0.14360
C421        C  0.93578450  0.33836201  0.93504782     0.36270
C422        C  0.90288540  0.32313582  0.92496386    -0.25740
C423        C  0.85601280  0.32525887  0.88837280    -0.14980
C424        C  0.84156868  0.34322168  0.86124481     0.37350
N425        N  0.79379353  0.34671692  0.82408737    -0.89230
H426        H  0.86332071  0.37223873  0.85078751     0.18470
H427        H  0.91393656  0.30950106  0.94628766     0.18460
N428        N  0.98238923  0.33534737  0.97461724    -0.88260
H429        H  0.78032626  0.35833194  0.83744674     0.35840
H430        H  0.77188056  0.33464836  0.82019610     0.40930
H431        H  0.99041938  0.34678173  0.00112524     0.40550
H432        H  0.00649326  0.33541556  0.95872617     0.35440
C433        C  0.76606109  0.25045215  0.71701418    -0.26290
C434        C  0.71738657  0.24626232  0.69397982    -0.14360
C435        C  0.68832832  0.25378088  0.71572666     0.36270
C436        C  0.70870624  0.26507566  0.76037984    -0.25740
C437        C  0.75744228  0.26913451  0.78370333    -0.14980
C438        C  0.78648007  0.26171501  0.76178526     0.37350
N439        N  0.83662673  0.26523716  0.78559180    -0.89230
H440        H  0.78845194  0.24450279  0.70060512     0.18470
H441        H  0.68628108  0.27099225  0.77678544     0.18460
N442        N  0.63820664  0.25017496  0.69203965    -0.88260
H443        H  0.85275781  0.25884065  0.76443502     0.35840
H444        H  0.85053358  0.25816134  0.82095687     0.40930
H445        H  0.62420709  0.25713169  0.65651742     0.40550
H446        H  0.62203201  0.25663385  0.71307672     0.35440
C447        C  0.63935102  0.34375537  0.06381026    -0.26290
C448        C  0.63540685  0.32792760  0.09298998    -0.14360
C449        C  0.60030072  0.32896811  0.11142244     0.36270
C450        C  0.57113762  0.34575715  0.10081365    -0.25740
C451        C  0.57462448  0.36121278  0.07052974    -0.14980
C452        C  0.60871887  0.35982769  0.05096663     0.37350
N453        N  0.61147816  0.37371982  0.01528576    -0.89230
H454        H  0.66623657  0.34367142  0.04985061     0.18470
H455        H  0.54471800  0.34658386  0.11540531     0.18460
N456        N  0.59304796  0.31284007  0.13929520    -0.88260
H457        H  0.62429463  0.38711253  0.03354201     0.35840
H458        H  0.57783088  0.37558692  0.98538883     0.40930
H459        H  0.58138015  0.30076601  0.11464760     0.40550
H460        H  0.56621318  0.31608456  0.15032401     0.35440
C461        C  0.78431018  0.25120607  0.26794378    -0.26290
C462        C  0.74923814  0.24483262  0.28244465    -0.14360
C463        C  0.70198320  0.25100265  0.25387907     0.36270
C464        C  0.69112108  0.26362998  0.21210316    -0.25740
C465        C  0.72617688  0.26988140  0.19752763    -0.14980
C466        C  0.77319412  0.26362745  0.22585393     0.37350
N467        N  0.80993025  0.27022345  0.21272943    -0.89230
H468        H  0.82075008  0.24675077  0.28986386     0.18470
H469        H  0.65482863  0.26822626  0.18990951     0.18460
N470        N  0.66506191  0.24409473  0.26664161    -0.88260
H471        H  0.82585381  0.25781378  0.20553575     0.35840
H472        H  0.83540330  0.27756600  0.24420514     0.40930
H473        H  0.66231757  0.22883969  0.26106248     0.40550
H474        H  0.63241683  0.25007073  0.24197486     0.35440
C475        C  0.69534466  0.28545521  0.97755214    -0.26290
C476        C  0.72763323  0.28488678  0.02919028    -0.14360
C477        C  0.77653151  0.28335631  0.04232914     0.36270
C478        C  0.79191648  0.28322627  0.00357319    -0.25740
C479        C  0.75971168  0.28502709  0.95217958    -0.14980
C480        C  0.71075450  0.28579713  0.93891607     0.37350
N481        N  0.67705535  0.28849311  0.88677239    -0.89230
H482        H  0.65783816  0.28645995  0.96737263     0.18470
H483        H  0.82944338  0.28266276  0.01356540     0.18460
N484        N  0.81056274  0.28300248  0.09485322    -0.88260
H485        H  0.64346496  0.29141634  0.88451498     0.35840
H486        H  0.67394235  0.27510177  0.86793359     0.40930
H487        H  0.80893454  0.29659464  0.11093107     0.40550
H488        H  0.84489515  0.28171529  0.09783474     0.35440
loop_ 
_geom_bond_atom_site_label_1 
_geom_bond_atom_site_label_2 
_geom_bond_distance 
_geom_bond_site_symmetry_2 
_ccdc_geom_bond_type 
C1            C2   1.408       .  A
C1            C6   1.407       .  A
C1          C448   1.501       .  S
C2            C3   1.403       .  A
C2            H7   1.082       .  S
C3            C4   1.400       .  A
C3          C476   1.487       .  S
C4            C5   1.404       .  A
C4            H8   1.083       .  S
C5            C6   1.406       .  A
C5          C465   1.482       .  S
C6            H9   1.082       .  S
C10          C11   1.402       .  A
C10          C15   1.402       .  A
C10         C423   1.478       .  S
C11          C12   1.403       .  A
C11          H16   1.084       .  S
C12          C13   1.400       .  A
C12         C479   1.482       .  S
C13          C14   1.404       .  A
C13          H17   1.083       .  S
C14          C15   1.406       .  A
C14         C437   1.483       .  S
C15          H18   1.083       .  S
C19          C20   1.405       .  A
C19          C24   1.405       .  A
C19         C395   1.489       .  S
C20          C21   1.407       .  A
C20          H25   1.083       .  S
C21          C22   1.403       .  A
C21         C434   1.483       .  S
C22          C23   1.400       .  A
C22          H26   1.084       .  S
C23          C24   1.401       .  A
C23         C406   1.479       .  S
C24          H27   1.083       .  S
C28          C29   1.401       .  A
C28          C33   1.398       .  A
C28         C378   1.478       .  S
C29          C30   1.408       .  A
C29          H34   1.084       .  S
C30          C31   1.408       .  A
C30         C462   1.484       .  S
C31          C32   1.402       .  A
C31          H35   1.083       .  S
C32          C33   1.402       .  A
C32         C409   1.484       .  S
C33          H36   1.084       .  S
N37          N38   1.322       .  A
N37          C41   1.351       .  A
N37         Cu45   2.083       .  S
N38          C39   1.338       .  A
N38         Cu44   2.057       .  S
C39          C40   1.378       .  A
C39          H42   1.082       .  S
C40          C41   1.387       .  A
C40          C64   1.470       .  S
C41          H43   1.082       .  S
Cu44         N47   2.057       .  S
Cu45         N55   2.085       .  S
Cu46         N48   2.076       .  S
Cu46         N54   2.077       .  S
N47          N48   1.320       .  A
N47          C51   1.343       .  A
N48          C49   1.346       .  A
C49          C50   1.386       .  A
C49          H52   1.082   1_655  S
C50          C51   1.381       .  A
C50         C122   1.470   1_565  S
C51          H53   1.082   1_565  S
N54          N55   1.323       .  A
N54          C58   1.344   1_655  A
N55          C56   1.346       .  A
C56          C57   1.388   1_655  A
C56          H59   1.082       .  S
C57          C58   1.387       .  A
C57         C367   1.489       .  S
C58          H60   1.081       .  S
N61          N62   1.321       .  A
N61          C65   1.350       .  A
N61         Cu69   2.079       .  S
N62          C63   1.339       .  A
N62         Cu68   2.060       .  S
C63          C64   1.379       .  A
C63          H66   1.082       .  S
C64          C65   1.386       .  A
C65          H67   1.082       .  S
Cu68         N71   2.059       .  S
Cu69         N79   2.080       .  S
Cu70         N72   2.076       .  S
Cu70         N78   2.077       .  S
N71          N72   1.320       .  A
N71          C75   1.344       .  A
N72          C73   1.346       .  A
C73          C74   1.386       .  A
C73          H76   1.082       .  S
C74          C75   1.381       .  A
C74          C98   1.470   1_565  S
C75          H77   1.082   1_565  S
N78          N79   1.325       .  A
N78          C82   1.345       .  A
N79          C80   1.345       .  A
C80          C81   1.383       .  A
C80          H83   1.082       .  S
C81          C82   1.381       .  A
C81         C353   1.476       .  S
C82          H84   1.082       .  S
N85          N86   1.321       .  A
N85          C89   1.351       .  A
N85         Cu93   2.082       .  S
N86          C87   1.338       .  A
N86         Cu92   2.056       .  S
C87          C88   1.379       .  A
C87          H90   1.082       .  S
C88          C89   1.387       .  A
C88         C112   1.470       .  S
C89          H91   1.082       .  S
Cu92         N95   2.056       .  S
Cu93        N103   2.083       .  S
Cu94         N96   2.077       .  S
Cu94        N102   2.078       .  S
N95          N96   1.320       .  A
N95          C99   1.343       .  A
N96          C97   1.346       .  A
C97          C98   1.386       .  A
C97         H100   1.082       .  S
C98          C99   1.381       .  A
C99         H101   1.082       .  S
N102        N103   1.323       .  A
N102        C106   1.343       .  A
N103        C104   1.345       .  A
C104        C105   1.390       .  A
C104        H107   1.077       .  S
C105        C106   1.388       .  A
C105        C392   1.492       .  S
C106        H108   1.082       .  S
N109        N110   1.321       .  A
N109        C113   1.350       .  A
N109       Cu117   2.079       .  S
N110        C111   1.338       .  A
N110       Cu116   2.058       .  S
C111        C112   1.379       .  A
C111        H114   1.082       .  S
C112        C113   1.387       .  A
C113        H115   1.082       .  S
Cu116       N119   2.058       .  S
Cu117       N127   2.080   1_455  S
Cu118       N120   2.076       .  S
Cu118       N126   2.078       .  S
N119        N120   1.320   1_455  A
N119        C123   1.343       .  A
N120        C121   1.346       .  A
C121        C122   1.386       .  A
C121        H124   1.082       .  S
C122        C123   1.381   1_655  A
C123        H125   1.082       .  S
N126        N127   1.325       .  A
N126        C130   1.345       .  A
N127        C128   1.345       .  A
C128        C129   1.383       .  A
C128        H131   1.082   1_655  S
C129        C130   1.381       .  A
C129        C381   1.475       .  S
C130        H132   1.082       .  S
C133        C134   1.404       .  A
C133        C138   1.402       .  A
C133        C308   1.488       .  S
C134        C135   1.402       .  A
C134        H139   1.084       .  S
C135        C136   1.405       .  A
C135        C336   1.486       .  S
C136        C137   1.408       .  A
C136        H140   1.084       .  S
C137        C138   1.406       .  A
C137        C322   1.486       .  S
C138        H141   1.082       .  S
C142        C143   1.400       .  A
C142        C147   1.400       .  A
C142        C280   1.476       .  S
C143        C144   1.405       .  A
C143        H148   1.084       .  S
C144        C145   1.406       .  A
C144        C339   1.490       .  S
C145        C146   1.406       .  A
C145        H149   1.083       .  S
C146        C147   1.403       .  A
C146        C294   1.480       .  S
C147        H150   1.083       .  S
C151        C152   1.402       .  A
C151        C156   1.400       .  A
C151        C350   1.480       .  S
C152        C153   1.408       .  A
C152        H157   1.083       .  S
C153        C154   1.410       .  A
C153        C325   1.488       .  S
C154        C155   1.404       .  A
C154        H158   1.083       .  S
C155        C156   1.400       .  A
C155        C269   1.483       .  S
C156        H159   1.085       .  S
C160        C161   1.399       .  A
C160        C165   1.400       .  A
C160        C364   1.474       .  S
C161        C162   1.403       .  A
C161        H166   1.084       .  S
C162        C163   1.406       .  A
C162        C297   1.480       .  S
C163        C164   1.407       .  A
C163        H167   1.083       .  S
C164        C165   1.406       .  A
C164        C266   1.490       .  S
C165        H168   1.084       .  S
N169        N170   1.322       .  A
N169        C173   1.352       .  A
N169       Cu177   2.087   1_556  S
N170        C171   1.338       .  A
N170       Cu176   2.061       .  S
C171        C172   1.379       .  A
C171        H174   1.082       .  S
C172        C173   1.388       .  A
C172        C196   1.472       .  S
C173        H175   1.082       .  S
Cu176       N179   2.060       .  S
Cu177       N187   2.088       .  S
Cu178       N180   2.072   1_455  S
Cu178       N186   2.073       .  S
N179        N180   1.320   1_556  A
N179        C183   1.344       .  A
N180        C181   1.345   1_655  A
C181        C182   1.385   1_454  A
C181        H184   1.082       .  S
C182        C183   1.382       .  A
C182        C220   1.471       .  S
C183        H185   1.082       .  S
N186        N187   1.322   1_455  A
N186        C190   1.343       .  A
N187        C188   1.345       .  A
C188        C189   1.391   1_655  A
C188        H191   1.081       .  S
C189        C190   1.388       .  A
C189        C311   1.495       .  S
C190        H192   1.080       .  S
N193        N194   1.322       .  A
N193        C197   1.352       .  A
N193       Cu201   2.087       .  S
N194        C195   1.338       .  A
N194       Cu200   2.061       .  S
C195        C196   1.379       .  A
C195        H198   1.082       .  S
C196        C197   1.388       .  A
C197        H199   1.082       .  S
Cu200       N203   2.061       .  S
Cu201       N211   2.089       .  S
Cu202       N204   2.070       .  S
Cu202       N210   2.072       .  S
N203        N204   1.320       .  A
N203        C207   1.344       .  A
N204        C205   1.345       .  A
C205        C206   1.385       .  A
C205        H208   1.082       .  S
C206        C207   1.382       .  A
C206        C254   1.470       .  S
C207        H209   1.082       .  S
N210        N211   1.322       .  A
N210        C214   1.342       .  A
N211        C212   1.346       .  A
C212        C213   1.392       .  A
C212        H215   1.081       .  S
C213        C214   1.388       .  A
C213        C283   1.495       .  S
C214        H216   1.079       .  S
N217        N218   1.321       .  A
N217        C221   1.347   1_455  A
N217       Cu225   2.079   1_455  S
N218        C219   1.343       .  A
N218       Cu224   2.060       .  S
C219        C220   1.381   1_455  A
C219        H222   1.082       .  S
C220        C221   1.386       .  A
C221        H223   1.082       .  S
Cu224       N227   2.060       .  S
Cu225       N235   2.080       .  S
Cu226       N228   2.082       .  S
Cu226       N234   2.083       .  S
N227        N228   1.321       .  A
N227        C231   1.339       .  A
N228        C229   1.351       .  A
C229        C230   1.387       .  A
C229        H232   1.082       .  S
C230        C231   1.380       .  A
C230        C244   1.471       .  S
C231        H233   1.082       .  S
N234        N235   1.324   1_455  A
N234        C238   1.345       .  A
N235        C236   1.345       .  A
C236        C237   1.384       .  A
C236        H239   1.082       .  S
C237        C238   1.386   1_655  A
C237        C420   1.484       .  S
C238        H240   1.080       .  S
N241        N242   1.323       .  A
N241        C245   1.351       .  A
N241       Cu249   2.088   1_556  S
N242        C243   1.339       .  A
N242       Cu248   2.062       .  S
C243        C244   1.379       .  A
C243        H246   1.082       .  S
C244        C245   1.387       .  A
C245        H247   1.082   1_556  S
Cu248       N251   2.061       .  S
Cu249       N259   2.088       .  S
Cu250       N252   2.068       .  S
Cu250       N258   2.069       .  S
N251        N252   1.319   1_556  A
N251        C255   1.344       .  A
N252        C253   1.345       .  A
C253        C254   1.385   1_554  A
C253        H256   1.082       .  S
C254        C255   1.382       .  A
C255        H257   1.082       .  S
N258        N259   1.323       .  A
N258        C262   1.341       .  A
N259        C260   1.347       .  A
C260        C261   1.388       .  A
C260        H263   1.082       .  S
C261        C262   1.383       .  A
C261        C451   1.485       .  S
C262        H264   1.079       .  S
C265        C266   1.407       .  A
C265        C270   1.407       .  A
C265        H272   1.084       .  S
C266        C267   1.414       .  A
C267        C268   1.405       .  A
C267        N274   1.438       .  S
C268        C269   1.403       .  A
C268        H273   1.084       .  S
C269        C270   1.410       .  A
C270        N271   1.438       .  S
N271        H275   1.046       .  S
N271        H276   1.044       .  S
N274        H277   1.046       .  S
N274        H278   1.046       .  S
C279        C280   1.399       .  A
C279        C284   1.402       .  A
C279        H286   1.084       .  S
C280        C281   1.414       .  A
C281        C282   1.403       .  A
C281        N288   1.439       .  S
C282        C283   1.409       .  A
C282        H287   1.082       .  S
C283        C284   1.416       .  A
C284        N285   1.431       .  S
N285        H289   1.046       .  S
N285        H290   1.046       .  S
N288        H291   1.043       .  S
N288        H292   1.046       .  S
C293        C294   1.402       .  A
C293        C298   1.399       .  A
C293        H300   1.084       .  S
C294        C295   1.415       .  A
C295        C296   1.400       .  A
C295        N302   1.433       .  S
C296        C297   1.402       .  A
C296        H301   1.084       .  S
C297        C298   1.415       .  A
C298        N299   1.433       .  S
N299        H303   1.044       .  S
N299        H304   1.046       .  S
N302        H305   1.045       .  S
N302        H306   1.044       .  S
C307        C308   1.403       .  A
C307        C312   1.405       .  A
C307        H314   1.084       .  S
C308        C309   1.415       .  A
C309        C310   1.399       .  A
C309        N316   1.433       .  S
C310        C311   1.407       .  A
C310        H315   1.082       .  S
C311        C312   1.418       .  A
C312        N313   1.437       .  S
N313        H317   1.046       .  S
N313        H318   1.046       .  S
N316        H319   1.045       .  S
N316        H320   1.043       .  S
C321        C322   1.403       .  A
C321        C326   1.406       .  A
C321        H328   1.084       .  S
C322        C323   1.413       .  A
C323        C324   1.404       .  A
C323        N330   1.438       .  S
C324        C325   1.404       .  A
C324        H329   1.084       .  S
C325        C326   1.415       .  A
C326        N327   1.438       .  S
N327        H331   1.046       .  S
N327        H332   1.045       .  S
N330        H333   1.045       .  S
N330        H334   1.046       .  S
C335        C336   1.405   1_556  A
C335        C340   1.406       .  A
C335        H342   1.084       .  S
C336        C337   1.419       .  A
C337        C338   1.402       .  A
C337        N344   1.438       .  S
C338        C339   1.405   1_554  A
C338        H343   1.084       .  S
C339        C340   1.413       .  A
C340        N341   1.438       .  S
N341        H345   1.046       .  S
N341        H346   1.046       .  S
N344        H347   1.041       .  S
N344        H348   1.045       .  S
C349        C350   1.403       .  A
C349        C354   1.399       .  A
C349        H356   1.085       .  S
C350        C351   1.417       .  A
C351        C352   1.403       .  A
C351        N358   1.438       .  S
C352        C353   1.404       .  A
C352        H357   1.084       .  S
C353        C354   1.417       .  A
C354        N355   1.440       .  S
N355        H359   1.046       .  S
N355        H360   1.041       .  S
N358        H361   1.042       .  S
N358        H362   1.046       .  S
C363        C364   1.400       .  A
C363        C368   1.405       .  A
C363        H370   1.084       .  S
C364        C365   1.413       .  A
C365        C366   1.402       .  A
C365        N372   1.439       .  S
C366        C367   1.407       .  A
C366        H371   1.083   1_455  S
C367        C368   1.416       .  A
C368        N369   1.437       .  S
N369        H373   1.046       .  S
N369        H374   1.046       .  S
N372        H375   1.043       .  S
N372        H376   1.045       .  S
C377        C378   1.401       .  A
C377        C382   1.397       .  A
C377        H384   1.084       .  S
C378        C379   1.409       .  A
C379        C380   1.407       .  A
C379        N386   1.437       .  S
C380        C381   1.405       .  A
C380        H385   1.084       .  S
C381        C382   1.417       .  A
C382        N383   1.438       .  S
N383        H387   1.045       .  S
N383        H388   1.042       .  S
N386        H389   1.046       .  S
N386        H390   1.046       .  S
C391        C392   1.407       .  A
C391        C396   1.404       .  A
C391        H398   1.082       .  S
C392        C393   1.420       .  A
C393        C394   1.400       .  A
C393        N400   1.431       .  S
C394        C395   1.404       .  A
C394        H399   1.084       .  S
C395        C396   1.413       .  A
C396        N397   1.439       .  S
N397        H401   1.045       .  S
N397        H402   1.046       .  S
N400        H403   1.045       .  S
N400        H404   1.042       .  S
C405        C406   1.405       .  A
C405        C410   1.406       .  A
C405        H412   1.084       .  S
C406        C407   1.418       .  A
C407        C408   1.396       .  A
C407        N414   1.438       .  S
C408        C409   1.403       .  A
C408        H413   1.084       .  S
C409        C410   1.412       .  A
C410        N411   1.438       .  S
N411        H415   1.046       .  S
N411        H416   1.046       .  S
N414        H417   1.041       .  S
N414        H418   1.045       .  S
C419        C420   1.405       .  A
C419        C424   1.403       .  A
C419        H426   1.084       .  S
C420        C421   1.416       .  A
C421        C422   1.398       .  A
C421        N428   1.432       .  S
C422        C423   1.401       .  A
C422        H427   1.084       .  S
C423        C424   1.416       .  A
C424        N425   1.439       .  S
N425        H429   1.046       .  S
N425        H430   1.043       .  S
N428        H431   1.045   1_556  S
N428        H432   1.043   1_655  S
C433        C434   1.405       .  A
C433        C438   1.404       .  A
C433        H440   1.084       .  S
C434        C435   1.411       .  A
C435        C436   1.403       .  A
C435        N442   1.438       .  S
C436        C437   1.405       .  A
C436        H441   1.084       .  S
C437        C438   1.412       .  A
C438        N439   1.438       .  S
N439        H443   1.046       .  S
N439        H444   1.045       .  S
N442        H445   1.045       .  S
N442        H446   1.046       .  S
C447        C448   1.407       .  A
C447        C452   1.394       .  A
C447        H454   1.082       .  S
C448        C449   1.420       .  A
C449        C450   1.410       .  A
C449        N456   1.437       .  S
C450        C451   1.404       .  A
C450        H455   1.083       .  S
C451        C452   1.415       .  A
C452        N453   1.433       .  S
N453        H457   1.042       .  S
N453        H458   1.046   1_554  S
N456        H459   1.045       .  S
N456        H460   1.046       .  S
C461        C462   1.405       .  A
C461        C466   1.402       .  A
C461        H468   1.084       .  S
C462        C463   1.414       .  A
C463        C464   1.404       .  A
C463        N470   1.438       .  S
C464        C465   1.404       .  A
C464        H469   1.084       .  S
C465        C466   1.408       .  A
C466        N467   1.433       .  S
N467        H471   1.046       .  S
N467        H472   1.045       .  S
N470        H473   1.045       .  S
N470        H474   1.046       .  S
C475        C476   1.404   1_556  A
C475        C480   1.403       .  A
C475        H482   1.084       .  S
C476        C477   1.415       .  A
C477        C478   1.406       .  A
C477        N484   1.438       .  S
C478        C479   1.403   1_554  A
C478        H483   1.084       .  S
C479        C480   1.413       .  A
C480        N481   1.438       .  S
N481        H485   1.046       .  S
N481        H486   1.044       .  S
N484        H487   1.046       .  S
N484        H488   1.046       .  S
