geometry optimzed in LAMMPS
_audit_creation_date              2020-11-30 
_audit_creation_method            'lammps2cif' 
_symmetry_space_group_name_H-M    'P1' 
_symmetry_Int_Tables_number       1 
_symmetry_cell_setting            triclinic 
loop_ 
_symmetry_equiv_pos_as_xyz 
  x,y,z 
_cell_length_a                    59.87883363985512 
_cell_length_b                    59.55000837424474 
_cell_length_c                    59.60021208038808 
_cell_angle_alpha                 90.01064093529232 
_cell_angle_beta                  89.90710879880845 
_cell_angle_gamma                 90.15038317405966 
loop_ 
_atom_site_label 
_atom_site_type_symbol 
_atom_site_fract_x 
_atom_site_fract_y 
_atom_site_fract_z 
_atom_site_charge 
C1          C  0.66089670  0.74749027  0.86903780     0.04350
C2          C  0.67692975  0.74709376  0.85183804    -0.11800
C3          C  0.67052134  0.75010187  0.82926849     0.01850
C4          C  0.64771341  0.75318776  0.82411437    -0.10330
C5          C  0.63160995  0.75308236  0.84129360     0.04340
C6          C  0.63849809  0.75069595  0.86354279    -0.09750
H7          H  0.69437347  0.74484909  0.85605589     0.09930
H8          H  0.64245683  0.75480893  0.80680814     0.07460
H9          H  0.62606821  0.75066917  0.87679334     0.07310
C10         C  0.68765263  0.74978074  0.81117970     0.04350
C11         C  0.68758709  0.76628608  0.79434401    -0.11800
C12         C  0.70410442  0.76660447  0.77753791     0.01850
C13         C  0.72070683  0.74988448  0.77763151    -0.10330
C14         C  0.72100780  0.73309259  0.79427139     0.04340
C15         C  0.70438699  0.73324553  0.81097748    -0.09750
H16         H  0.67467805  0.77899863  0.79442068     0.09930
H17         H  0.73349896  0.75000256  0.76476863     0.07460
H18         H  0.70457240  0.72056809  0.82401082     0.07310
C19         C  0.69829715  0.82354383  0.74874429     0.04350
C20         C  0.69887135  0.80686832  0.76545044    -0.11800
C21         C  0.70392974  0.78436855  0.75990310     0.01850
C22         C  0.70866079  0.77890835  0.73736507    -0.10330
C23         C  0.70778445  0.79545332  0.72063739     0.04340
C24         C  0.70240418  0.81749724  0.72645148    -0.09750
H25         H  0.69595984  0.81151405  0.78277775     0.09930
H26         H  0.71234640  0.76173503  0.73267922     0.07460
H27         H  0.70158822  0.83015903  0.71340745     0.07310
C28         C  0.77835822  0.70587367  0.79140238     0.04350
C29         C  0.76132149  0.72189275  0.79009527    -0.11800
C30         C  0.73900210  0.71579623  0.79465072     0.01850
C31         C  0.73406571  0.69314722  0.79981769    -0.10330
C32         C  0.75119872  0.67699330  0.80100022     0.04340
C33         C  0.77329860  0.68381394  0.79736254    -0.09750
H34         H  0.76558201  0.73911728  0.78606333     0.09930
H35         H  0.71688453  0.68802382  0.80237558     0.07460
H36         H  0.78678980  0.67180785  0.79891179     0.07310
O37         O  0.43407421  0.73881701  0.76137405    -0.87130
C38         C  0.44051195  0.79887997  0.79257158     0.88900
Mg39       Mg  0.41908436  0.71081340  0.77789947     1.58150
O40         O  0.48992174  0.76901279  0.78528168    -0.86860
O41         O  0.46505777  0.74890693  0.74424705    -0.74190
C42         C  0.46723052  0.71211479  0.87769257     0.93950
O43         O  0.40211123  0.76160386  0.79773888    -0.74000
O44         O  0.45071796  0.70316622  0.86773264    -0.81510
Mg45       Mg  0.41573086  0.76910705  0.76230031     1.57960
C46         C  0.53551858  0.76072768  0.83388490     0.93880
O47         O  0.42728978  0.77633337  0.72557269    -0.79770
H48         H  0.51152184  0.75303376  0.76524516    -0.05110
C49         C  0.45960979  0.76498206  0.84535593     0.88810
O50         O  0.45424267  0.69729312  0.78562931    -0.74280
O51         O  0.44384157  0.78518742  0.77726671    -0.87040
O52         O  0.52626577  0.77582713  0.82194766    -0.79850
C53         C  0.49398028  0.83006497  0.78394962     0.93990
C54         C  0.44195943  0.78886604  0.71632248     0.93840
Mg55       Mg  0.49284242  0.72998010  0.83069697     1.57950
O56         O  0.48230659  0.72298109  0.86722066    -0.79780
O57         O  0.50569169  0.73718418  0.79486977    -0.74020
O58         O  0.48124125  0.82076836  0.76955182    -0.79860
O59         O  0.38505512  0.75254000  0.74852508    -0.81570
O60         O  0.42666176  0.67976893  0.82571304    -0.79890
C61         C  0.50282737  0.75330763  0.78114933     0.88280
O62         O  0.46438036  0.71412715  0.81683391    -0.87030
O63         O  0.47478507  0.76051437  0.83190996    -0.87140
O64         O  0.44314236  0.75178853  0.84857501    -0.74190
Mg65       Mg  0.47337296  0.78435862  0.75788556     1.57970
O66         O  0.50445142  0.81834936  0.79825725    -0.81570
H67         H  0.44899297  0.71936669  0.73845260    -0.05290
O68         O  0.41838342  0.73017885  0.80784614    -0.86840
H69         H  0.39581347  0.74563378  0.82719701    -0.05120
H70         H  0.48339420  0.69099460  0.80177156    -0.05290
C71         C  0.40497023  0.74555930  0.81155067     0.88260
C72         C  0.44915186  0.73503143  0.74761048     0.88840
C73         C  0.46792623  0.70031672  0.80168313     0.88890
H74         H  0.46004454  0.78085495  0.85414685    -0.05270
O75         O  0.45472054  0.80209056  0.80815570    -0.74300
Mg76       Mg  0.43457690  0.71615637  0.83618304     1.58000
H77         H  0.42500092  0.80811362  0.79288768    -0.05290
C78         C  0.37342610  0.73757099  0.75831202     0.93880
O79         O  0.40564576  0.67957320  0.79484780    -0.81530
C80         C  0.41520974  0.66943880  0.81096560     0.93940
O81         O  0.45638490  0.79912673  0.72806034    -0.81510
Mg82       Mg  0.49003108  0.78803405  0.81524091     1.58180
O83         O  0.38264469  0.72252592  0.77041353    -0.79850
O84         O  0.52390997  0.74594887  0.84389644    -0.81540
C85         C  0.45072960  0.07326327  0.84181736     0.04350
C86         C  0.44842094  0.05619946  0.82565348    -0.11800
C87         C  0.45314563  0.03362933  0.83120504     0.01850
C88         C  0.45888302  0.02835250  0.85361072    -0.10330
C89         C  0.46149881  0.04540985  0.86979925     0.04340
C90         C  0.45869414  0.06773843  0.86312285    -0.09750
H91         H  0.44321128  0.06053523  0.80882267     0.09930
H92         H  0.46088743  0.01095736  0.85844198     0.07460
H93         H  0.46222982  0.08115309  0.87488814     0.07310
C94         C  0.45259563  0.01564863  0.81366523     0.04350
C95         C  0.43603316  0.01533280  0.79689840    -0.11800
C96         C  0.43600153  0.99876788  0.77995186     0.01850
C97         C  0.45284265  0.98229798  0.78006134    -0.10330
C98         C  0.46967118  0.98242040  0.79649508     0.04340
C99         C  0.46931606  0.99908722  0.81322587    -0.09750
H100        H  0.42323039  0.02813697  0.79692001     0.09930
H101        H  0.45304083  0.96947223  0.76717930     0.07460
H102        H  0.48232277  0.99931550  0.82583619     0.07310
C103        C  0.40817050  0.99541008  0.72233498     0.04350
C104        C  0.42436100  0.99413523  0.73937993    -0.11800
C105        C  0.41868639  0.99907548  0.76189992     0.01850
C106        C  0.39629107  0.00434942  0.76711243    -0.10330
C107        C  0.38011480  0.00586536  0.75009500     0.04340
C108        C  0.38662379  0.00246104  0.72782849    -0.09750
H109        H  0.44129133  0.98946343  0.73507047     0.09930
H110        H  0.39137840  0.00673877  0.78443772     0.07460
H111        H  0.37457463  0.00493427  0.71450802     0.07310
C112        C  0.50095069  0.92687073  0.79161592     0.04350
C113        C  0.48348244  0.94262471  0.79190636    -0.11800
C114        C  0.48805858  0.96560127  0.79581540     0.01850
C115        C  0.51037338  0.97247007  0.79937239    -0.10330
C116        C  0.52781711  0.95681014  0.79845807     0.04340
C117        C  0.52293119  0.93430014  0.79428073    -0.09750
H118        H  0.46639602  0.93692337  0.79000383     0.09930
H119        H  0.51425123  0.98999095  0.80238821     0.07460
H120        H  0.53644607  0.92220950  0.79383780     0.07310
C121        C  0.45054680  0.29483476  0.11964496     0.04350
C122        C  0.45034414  0.27794757  0.10312861    -0.11800
C123        C  0.45375277  0.28349688  0.08027443     0.01850
C124        C  0.45720093  0.30621695  0.07427946    -0.10330
C125        C  0.45668609  0.32308165  0.09071684     0.04340
C126        C  0.45331260  0.31718806  0.11311178    -0.09750
H127        H  0.44830715  0.26056762  0.10810372     0.09930
H128        H  0.45953257  0.31084930  0.05685386     0.07460
H129        H  0.45302028  0.33029886  0.12575532     0.07310
C130        C  0.43669122  0.23232848  0.04560747     0.04350
C131        C  0.43717954  0.24892715  0.06247905    -0.11800
C132        C  0.45374207  0.26570504  0.06265137     0.01850
C133        C  0.47025078  0.26555805  0.04585309    -0.10330
C134        C  0.47044422  0.24895529  0.02902262     0.04340
C135        C  0.45341334  0.23259352  0.02888956    -0.09750
H136        H  0.42461029  0.24884233  0.07556543     0.09930
H137        H  0.48310705  0.27839026  0.04597965     0.07460
H138        H  0.45334548  0.21993347  0.01585267     0.07310
C139        C  0.52841902  0.25261015  0.00296433     0.04350
C140        C  0.51105411  0.25273684  0.01873844    -0.11800
C141        C  0.48882642  0.24846335  0.01204315     0.01850
C142        C  0.48437549  0.24426602  0.98909944    -0.10330
C143        C  0.50186461  0.24441876  0.97323115     0.04340
C144        C  0.52378962  0.24799541  0.98055726    -0.09750
H145        H  0.51492953  0.25601377  0.03618443     0.09930
H146        H  0.46734400  0.24183553  0.98349055     0.07460
H147        H  0.53743359  0.24778909  0.96856105     0.07310
C148        C  0.40764903  0.17510378  0.04138871     0.04350
C149        C  0.42400886  0.19214606  0.04002173    -0.11800
C150        C  0.41897520  0.21454358  0.04588626     0.01850
C151        C  0.39689340  0.21983092  0.05220605    -0.10330
C152        C  0.38052034  0.20297617  0.05371671     0.04340
C153        C  0.38618586  0.18072611  0.04893148    -0.09750
H154        H  0.44069437  0.18793882  0.03448703     0.09930
H155        H  0.39228606  0.23706844  0.05566348     0.07460
H156        H  0.37349588  0.16781902  0.05051907     0.07310
O157        O  0.22218747  0.02237087  0.82579025    -0.87130
C158        C  0.15858773  0.02370109  0.80437105     0.88900
Mg159      Mg  0.24951926  0.02932279  0.80425155     1.58150
O160        O  0.17999344  0.97041686  0.81484092    -0.86860
O161        O  0.21050708  0.99592555  0.84871283    -0.74190
C162        C  0.22649821  0.96957496  0.71371451     0.93950
O163        O  0.19991638  0.05283687  0.78775399    -0.74000
O164        O  0.23956921  0.98535872  0.71968116    -0.81510
Mg165      Mg  0.19565498  0.04618271  0.82561111     1.57960
C166        C  0.17314181  0.91801897  0.77368762     0.93880
O167        O  0.19243363  0.04105024  0.86367043    -0.79770
H168        H  0.19442660  0.94862305  0.83580807    -0.05110
C169        C  0.18119666  0.99086669  0.75017671     0.88810
O170        O  0.25593416  0.99147507  0.80031591    -0.74280
O171        O  0.17324304  0.01955773  0.81843173    -0.87040
O172        O  0.16179353  0.93262270  0.78438377    -0.79850
C173        C  0.12078435  0.97831670  0.82462051     0.93990
C174        C  0.18122876  0.02989697  0.87808510     0.93840
Mg175      Mg  0.21146536  0.95384588  0.76622057     1.57950
O176        O  0.21529854  0.95830477  0.72806322    -0.79780
O177        O  0.20691935  0.94770851  0.80413506    -0.74020
O178        O  0.13457993  0.98909328  0.83690375    -0.79860
O179        O  0.21826931  0.07610730  0.83155709    -0.81570
O180        O  0.27159683  0.01154631  0.75465990    -0.79890
C181        C  0.19352617  0.95523662  0.81894261     0.88280
O182        O  0.23360543  0.98071065  0.77316466    -0.87030
O183        O  0.18492121  0.97750504  0.76564120    -0.87140
O184        O  0.19618502  0.00408205  0.74272282    -0.74190
Mg185      Mg  0.17277010  0.99241903  0.84186268     1.57970
O186        O  0.12701778  0.96607373  0.80833527    -0.81570
H187        H  0.24242267  0.00752057  0.84794101    -0.05290
O188        O  0.22656839  0.02993479  0.77682567    -0.86840
H189        H  0.21229327  0.05199969  0.75602602    -0.05120
H190        H  0.25515023  0.95975513  0.78786616    -0.05290
C191        C  0.21317608  0.04527077  0.77284494     0.88260
C192        C  0.22574547  0.00881788  0.84114302     0.88840
C193        C  0.24859600  0.97662087  0.78685590     0.88890
H194        H  0.16453630  0.99179754  0.74327324    -0.05270
O195        O  0.15147544  0.00889027  0.79071916    -0.74300
Mg196      Mg  0.23372691  0.00789767  0.74979030     1.58000
H197        H  0.15217951  0.04061286  0.80317058    -0.05290
C198        C  0.23429415  0.08196273  0.81880069     0.93880
O199        O  0.27990153  0.03494814  0.78239404    -0.81530
C200        C  0.28589877  0.02247026  0.76616899     0.93940
O201        O  0.16722997  0.01493323  0.87212111    -0.81510
Mg202      Mg  0.15757709  0.97094388  0.78706587     1.58180
O203        O  0.24539181  0.06743497  0.80777816    -0.79850
O204        O  0.18892718  0.92377090  0.76057428    -0.81540
C205        C  0.94928478  0.45481380  0.22207268     0.04350
C206        C  0.95578695  0.43303956  0.22758802    -0.11800
C207        C  0.95954443  0.42667075  0.24984094     0.01850
C208        C  0.95856697  0.44322017  0.26673163    -0.10330
C209        C  0.95352444  0.46577748  0.26133706     0.04340
C210        C  0.94857533  0.47130702  0.23886776    -0.09750
H211        H  0.95769799  0.42081257  0.21425099     0.09930
H212        H  0.96117211  0.43850638  0.28407090     0.07460
H213        H  0.94432090  0.48838507  0.23436848     0.07310
C214        C  0.99845346  0.50528139  0.36928438     0.04350
C215        C  0.98198117  0.50526632  0.35261630    -0.11800
C216        C  0.98772063  0.50087948  0.33007056     0.01850
C217        C  0.01028143  0.49659754  0.32460638    -0.10330
C218        C  0.02679537  0.49645556  0.34141005     0.04340
C219        C  0.02052024  0.50052498  0.36365591    -0.09750
H220        H  0.96475249  0.50824969  0.35729545     0.09930
H221        H  0.01503138  0.49382822  0.30728720     0.07460
H222        H  0.03286243  0.49961979  0.37692024     0.07310
C223        C  0.95334778  0.48350903  0.27906354     0.04350
C224        C  0.96997840  0.48393727  0.29572315    -0.11800
C225        C  0.97017600  0.50071087  0.31235348     0.01850
C226        C  0.95342372  0.51722543  0.31217562    -0.10330
C227        C  0.93663331  0.51723596  0.29568307     0.04340
C228        C  0.93679076  0.50027906  0.27919647    -0.09750
H229        H  0.98283293  0.47117299  0.29574788     0.09930
H230        H  0.95342156  0.53008861  0.32502285     0.07460
H231        H  0.92397952  0.50011590  0.26640585     0.07310
C232        C  0.87955130  0.54537268  0.29183843     0.04350
C233        C  0.89649219  0.52910832  0.29075969    -0.11800
C234        C  0.91878998  0.53474293  0.29601443     0.01850
C235        C  0.92392638  0.55722708  0.30161770    -0.10330
C236        C  0.90699916  0.57353082  0.30290073     0.04340
C237        C  0.88488768  0.56708854  0.29889337    -0.09750
H238        H  0.89225025  0.51210452  0.28592117     0.09930
H239        H  0.94111929  0.56214627  0.30441236     0.07460
H240        H  0.87162054  0.57926983  0.30094321     0.07310
O241        O  0.72306313  0.52268661  0.82606133    -0.87130
C242        C  0.65919882  0.52367424  0.80461325     0.88900
Mg243      Mg  0.75048484  0.52934122  0.80449767     1.58150
O244        O  0.68056526  0.47028802  0.81524714    -0.86860
O245        O  0.71124083  0.49622248  0.84890181    -0.74190
C246        C  0.72720170  0.46905718  0.71438643     0.93950
O247        O  0.70099466  0.55236358  0.78738432    -0.74000
O248        O  0.74096836  0.48419709  0.72040504    -0.81510
Mg249      Mg  0.69641400  0.54634450  0.82531030     1.57960
C250        C  0.67327788  0.41801122  0.77353565     0.93880
O251        O  0.69267114  0.54201244  0.86343104    -0.79770
H252        H  0.69459308  0.44829352  0.83628645    -0.05110
C253        C  0.68223078  0.49096615  0.75059106     0.88810
O254        O  0.75661840  0.49130390  0.80108966    -0.74280
O255        O  0.67403681  0.51954922  0.81846325    -0.87040
O256        O  0.66202756  0.43260174  0.78435688    -0.79850
C257        C  0.62145074  0.47803507  0.82548923     0.93990
C258        C  0.68133384  0.53099076  0.87784765     0.93840
Mg259      Mg  0.71198294  0.45358474  0.76683289     1.57950
O260        O  0.71576372  0.45813323  0.72877751    -0.79780
O261        O  0.70726089  0.44727400  0.80468378    -0.74020
O262        O  0.63531822  0.48896227  0.83754404    -0.79860
O263        O  0.71893684  0.57643172  0.83093264    -0.81570
O264        O  0.77334826  0.50938174  0.75593344    -0.79890
C265        C  0.69387934  0.45494011  0.81942482     0.88280
O266        O  0.73427093  0.48024460  0.77404866    -0.87030
O267        O  0.68560599  0.47750924  0.76608075    -0.87140
O268        O  0.69756466  0.50378357  0.74307581    -0.74190
Mg269      Mg  0.67352217  0.49258350  0.84211529     1.57970
O270        O  0.62753563  0.46600506  0.80897116    -0.81570
H271        H  0.74314831  0.50783280  0.84833858    -0.05290
O272        O  0.72790584  0.52953786  0.77694418    -0.86840
H273        H  0.71360783  0.55121678  0.75576166    -0.05120
H274        H  0.75547113  0.45932388  0.78931309    -0.05290
C275        C  0.71442701  0.54471630  0.77267517     0.88260
C276        C  0.72651015  0.50914093  0.84144509     0.88840
C277        C  0.74911250  0.47623744  0.78793715     0.88890
H278        H  0.66561561  0.49227065  0.74364367    -0.05270
O279        O  0.65193305  0.50883387  0.79109824    -0.74300
Mg280      Mg  0.73523095  0.50699598  0.75033096     1.58000
H281        H  0.65275658  0.54057699  0.80348008    -0.05290
C282        C  0.73517305  0.58223540  0.81841689     0.93880
O283        O  0.78079912  0.53468359  0.78248893    -0.81530
C284        C  0.78711183  0.52104708  0.76737434     0.93940
O285        O  0.66792940  0.51544675  0.87200905    -0.81510
Mg286      Mg  0.65808452  0.47092948  0.78745500     1.58180
O287        O  0.74644374  0.56765323  0.80760662    -0.79850
O288        O  0.68934571  0.42378743  0.76081155    -0.81540
C289        C  0.74979339  0.49644436  0.11930532     0.04350
C290        C  0.73326619  0.49521833  0.10250599    -0.11800
C291        C  0.73829764  0.50077249  0.08001006     0.01850
C292        C  0.76043995  0.50673609  0.07444335    -0.10330
C293        C  0.77683682  0.50815328  0.09113971     0.04340
C294        C  0.77128132  0.50365795  0.11341731    -0.09750
H295        H  0.71652210  0.48996353  0.10694988     0.09930
H296        H  0.76508987  0.50977011  0.05713185     0.07460
H297        H  0.78412538  0.50511883  0.12613400     0.07310
C298        C  0.70354083  0.51710144  0.02896445     0.04350
C299        C  0.72010982  0.51704474  0.04566668    -0.11800
C300        C  0.72059755  0.50032748  0.06235223     0.01850
C301        C  0.70405403  0.48346295  0.06216638    -0.10330
C302        C  0.68719258  0.48318895  0.04569581     0.04340
C303        C  0.68716406  0.50008628  0.02916039    -0.09750
H304        H  0.73274106  0.53009022  0.04565393     0.09930
H305        H  0.70424072  0.47053028  0.07492748     0.07460
H306        H  0.67434165  0.50000286  0.01637572     0.07310
C307        C  0.65810925  0.42637710  0.05237129     0.04350
C308        C  0.67488402  0.44294335  0.05119306    -0.11800
C309        C  0.66947520  0.46544498  0.04600695     0.01850
C310        C  0.64704606  0.47084492  0.04102828    -0.10330
C311        C  0.63027750  0.45429865  0.04205419     0.04340
C312        C  0.63591928  0.43261109  0.04883405    -0.09750
H313        H  0.69215113  0.43824212  0.05373162     0.09930
H314        H  0.64258818  0.48785121  0.03648696     0.07460
H315        H  0.62278408  0.42023422  0.05100739     0.07310
C316        C  0.70930097  0.57384727  0.99955861     0.04350
C317        C  0.70491466  0.56763453  0.97738602    -0.11800
C318        C  0.69942122  0.54553730  0.97184947     0.01850
C319        C  0.69861809  0.52912828  0.98872392    -0.10330
C320        C  0.70357205  0.53477036  0.01117753     0.04340
C321        C  0.70883421  0.55732990  0.01643455    -0.09750
H322        H  0.70563339  0.58019692  0.96422756     0.09930
H323        H  0.69484575  0.51191794  0.98419006     0.07460
H324        H  0.71199527  0.56216691  0.03365962     0.07310
C325        C  0.25242211  0.25705843  0.22418995     0.04350
C326        C  0.23503856  0.25545649  0.24006959    -0.11800
C327        C  0.23979789  0.25074662  0.26285810     0.01850
C328        C  0.26213889  0.24632603  0.26914231    -0.10330
C329        C  0.27942788  0.24784652  0.25325125     0.04340
C330        C  0.27445882  0.25495732  0.23155803    -0.09750
H331        H  0.21786800  0.25704637  0.23464603     0.09930
H332        H  0.26609489  0.24170132  0.28624477     0.07460
H333        H  0.28805682  0.25755056  0.21979374     0.07310
C334        C  0.20423158  0.23290000  0.31315681     0.04350
C335        C  0.18756194  0.24951274  0.31276912    -0.11800
C336        C  0.18744783  0.26628014  0.29610628     0.01850
C337        C  0.20446553  0.26628301  0.27973616    -0.10330
C338        C  0.22148280  0.25001943  0.27992531     0.04340
C339        C  0.22113523  0.23337627  0.29669411    -0.09750
H340        H  0.17459028  0.24931767  0.32545135     0.09930
H341        H  0.20454669  0.27907327  0.26682223     0.07460
H342        H  0.23407865  0.22071816  0.29693787     0.07310
C343        C  0.13038497  0.29464860  0.29972424     0.04350
C344        C  0.14717763  0.27820686  0.30069510    -0.11800
C345        C  0.16961053  0.28378970  0.29574337     0.01850
C346        C  0.17488256  0.30625679  0.29027039    -0.10330
C347        C  0.15808797  0.32261219  0.28936844     0.04340
C348        C  0.13601840  0.31670807  0.29400449    -0.09750
H349        H  0.14262001  0.26104620  0.30466232     0.09930
H350        H  0.19202125  0.31115707  0.28703065     0.07460
H351        H  0.12315473  0.32949148  0.29349099     0.07310
C352        C  0.19849522  0.20270715  0.36944038     0.04350
C353        C  0.19896225  0.21989662  0.35323606    -0.11800
C354        C  0.20378774  0.21483956  0.33052073     0.01850
C355        C  0.20874033  0.19242211  0.32453550    -0.10330
C356        C  0.20823443  0.17534356  0.34075234     0.04340
C357        C  0.20188435  0.18054045  0.36262396    -0.09750
H358        H  0.19647076  0.23714990  0.35839402     0.09930
H359        H  0.21301618  0.18824212  0.30737629     0.07460
H360        H  0.20056133  0.16711879  0.37486545     0.07310
O361        O  0.22768404  0.73035696  0.57569846    -0.87130
C362        C  0.22752958  0.79484687  0.55550176     0.88900
Mg363      Mg  0.23497214  0.70367427  0.55344545     1.58150
O364        O  0.17480907  0.77186211  0.56519062    -0.86860
O365        O  0.20077134  0.74082415  0.59848555    -0.74190
C366        C  0.17475535  0.72652331  0.46341025     0.93950
O367        O  0.25754706  0.75434441  0.53796800    -0.74000
O368        O  0.19126439  0.71451640  0.46930088    -0.81510
Mg369      Mg  0.25078248  0.75767734  0.57586644     1.57960
C370        C  0.12268826  0.77919161  0.52338227     0.93880
O371        O  0.24581097  0.76035149  0.61396507    -0.79770
H372        H  0.15306124  0.75684510  0.58585489    -0.05110
C373        C  0.19543769  0.77289725  0.50068512     0.88810
O374        O  0.19738876  0.69657631  0.54950338    -0.74280
O375        O  0.22371096  0.77949396  0.56901872    -0.87040
O376        O  0.13696735  0.79064163  0.53443448    -0.79850
C377        C  0.18194417  0.83139073  0.57691389     0.93990
C378        C  0.23435398  0.77111342  0.62842961     0.93840
Mg379      Mg  0.15903395  0.74108491  0.51612418     1.57950
O380        O  0.16332481  0.73738630  0.47785883    -0.79780
O381        O  0.15247803  0.74479323  0.55400003    -0.74020
O382        O  0.19291909  0.81691325  0.58812068    -0.79860
O383        O  0.28101311  0.73552649  0.58138959    -0.81570
O384        O  0.21727465  0.68236035  0.50373674    -0.79890
C385        C  0.15975340  0.75807897  0.56904239     0.88280
O386        O  0.18623592  0.71945855  0.52289138    -0.87030
O387        O  0.18198847  0.76862647  0.51592538    -0.87140
O388        O  0.20890045  0.75821682  0.49313997    -0.74190
Mg389      Mg  0.19661999  0.77875418  0.59231419     1.57970
O390        O  0.16919673  0.82551625  0.56087753    -0.81570
H391        H  0.21319848  0.70915536  0.59735299    -0.05290
O392        O  0.23501011  0.72747619  0.52664557    -0.86840
H393        H  0.25680750  0.74250544  0.50602771    -0.05120
H394        H  0.16576770  0.69707003  0.53727907    -0.05290
C395        C  0.25013435  0.74121355  0.52284192     0.88260
C396        C  0.21413363  0.72608053  0.59085717     0.88840
C397        C  0.18244792  0.70400667  0.53630450     0.88890
H398        H  0.19622571  0.78978510  0.49407490    -0.05270
O399        O  0.21259523  0.80225269  0.54227505    -0.74300
Mg400      Mg  0.21330962  0.72039999  0.49951323     1.58000
H401        H  0.24423218  0.80171886  0.55446083    -0.05290
C402        C  0.28701667  0.72004450  0.56799038     0.93880
O403        O  0.24104185  0.67378836  0.53088306    -0.81530
C404        C  0.22831689  0.66789846  0.51486862     0.93940
O405        O  0.21875765  0.78431511  0.62256398    -0.81510
Mg406      Mg  0.17494064  0.79545142  0.53822301     1.58180
O407        O  0.27279140  0.70877699  0.55674576    -0.79850
O408        O  0.12871346  0.76307380  0.51075203    -0.81540
C409        C  0.15902865  0.82378154  0.79319012     0.04350
C410        C  0.17531703  0.80687256  0.79219408    -0.11800
C411        C  0.16952156  0.78423740  0.79620811     0.01850
C412        C  0.14692536  0.77874757  0.80041427    -0.10330
C413        C  0.13047309  0.79560393  0.80125466     0.04340
C414        C  0.13694102  0.81799469  0.79814892    -0.09750
H415        H  0.19253613  0.81145604  0.78892721     0.09930
H416        H  0.14211278  0.76133494  0.80251850     0.07460
H417        H  0.12455739  0.83117891  0.79930280     0.07310
C418        C  0.22079948  0.74973631  0.77999456     0.04350
C419        C  0.20408543  0.76634646  0.77993809    -0.11800
C420        C  0.18704416  0.76642928  0.79624148     0.01850
C421        C  0.18689746  0.74953051  0.81275554    -0.10330
C422        C  0.20345300  0.73279152  0.81316510     0.04340
C423        C  0.22038356  0.73312616  0.79674947    -0.09750
H424        H  0.20428042  0.77918659  0.76706708     0.09930
H425        H  0.17385579  0.74941858  0.82537175     0.07460
H426        H  0.23319208  0.72031286  0.79689136     0.07310
C427        C  0.27712407  0.74514973  0.75009057     0.04350
C428        C  0.27027289  0.74755336  0.72781322    -0.11800
C429        C  0.24805050  0.75176748  0.72236937     0.01850
C430        C  0.23201059  0.75271589  0.73950203    -0.10330
C431        C  0.23818934  0.74926765  0.76207039     0.04340
C432        C  0.26093879  0.74550526  0.76727107    -0.09750
H433        H  0.28261785  0.74698402  0.71448904     0.09930
H434        H  0.21469817  0.75566779  0.73517787     0.07460
H435        H  0.26609636  0.74372814  0.78458899     0.07310
C436        C  0.19860534  0.70365774  0.86983753     0.04350
C437        C  0.19839683  0.72040796  0.85329387    -0.11800
C438        C  0.20304527  0.71494793  0.83070791     0.01850
C439        C  0.20767357  0.69238421  0.82505743    -0.10330
C440        C  0.20751633  0.67559212  0.84163606     0.04340
C441        C  0.20306807  0.68147246  0.86387570    -0.09750
H442        H  0.19550202  0.73769015  0.85814949     0.09930
H443        H  0.21096736  0.68779842  0.80777937     0.07460
H444        H  0.20363235  0.66871207  0.87685383     0.07310
O445        O  0.73344313  0.76990687  0.56691982    -0.87130
C446        C  0.71312770  0.70548847  0.56852815     0.88900
Mg447      Mg  0.71117495  0.79665162  0.57406798     1.58150
O448        O  0.72254892  0.72706465  0.51507145    -0.86860
O449        O  0.75594343  0.75867786  0.54002600    -0.74190
C450        C  0.62131044  0.77199975  0.51469568     0.93950
O451        O  0.69602596  0.74665751  0.59748174    -0.74000
O452        O  0.62719892  0.78522494  0.53037825    -0.81510
Mg453      Mg  0.73381492  0.74314225  0.59070547     1.57960
C454        C  0.68051340  0.71863675  0.46348067     0.93880
O455        O  0.77183630  0.74018837  0.58569601    -0.79770
H456        H  0.74292866  0.74154775  0.49268173    -0.05110
C457        C  0.65830656  0.72696108  0.53623816     0.88810
O458        O  0.70712630  0.80310172  0.53614171    -0.74280
O459        O  0.72683395  0.72051915  0.56418922    -0.87040
O460        O  0.69226716  0.70774019  0.47755231    -0.79850
C461        C  0.73351816  0.66785918  0.52327177     0.93990
C462        C  0.78623104  0.72917931  0.57439586     0.93840
Mg463      Mg  0.67352374  0.75738276  0.49880165     1.57950
O464        O  0.63571692  0.76086761  0.50358782    -0.79780
O465        O  0.71118822  0.75343184  0.49198017    -0.74020
O466        O  0.74557494  0.68204941  0.53382224    -0.79860
O467        O  0.73957656  0.76602403  0.62051107    -0.81570
O468        O  0.66219274  0.81827950  0.55497921    -0.79890
C469        C  0.72624687  0.74044857  0.49957286     0.88280
O470        O  0.68064146  0.77991736  0.52533254    -0.87030
O471        O  0.67354746  0.73088782  0.52269790    -0.87140
O472        O  0.65071820  0.74202704  0.54930725    -0.74190
Mg473      Mg  0.74982184  0.72058049  0.53675925     1.57970
O474        O  0.71717731  0.67369865  0.51105844    -0.81570
H475        H  0.75483490  0.79073788  0.55158175    -0.05290
O476        O  0.68450692  0.77300639  0.57443647    -0.86840
H477        H  0.66414153  0.75817542  0.59662085    -0.05120
H478        H  0.69506191  0.80182478  0.50433770    -0.05290
C479        C  0.68084957  0.75948968  0.58983678     0.88260
C480        C  0.74840437  0.77382121  0.55305824     0.88840
C481        C  0.69405705  0.79526437  0.52121791     0.88890
H482        H  0.65170253  0.71008775  0.53742782    -0.05270
O483        O  0.69954476  0.69800036  0.55390201    -0.74300
Mg484      Mg  0.65742395  0.77994495  0.55253634     1.58000
H485        H  0.71217755  0.69906219  0.58546786    -0.05290
C486        C  0.72601277  0.78129888  0.62647410     0.93880
O487        O  0.68836937  0.82616811  0.58031334    -0.81530
C488        C  0.67320366  0.83227681  0.56678055     0.93940
O489        O  0.78029109  0.71584156  0.55880492    -0.81510
Mg490      Mg  0.69540550  0.70385971  0.51598744     1.58180
O491        O  0.71459400  0.79214306  0.61210426    -0.79850
O492        O  0.66728009  0.73416534  0.46945163    -0.81540
C493        C  0.77792538  0.20521542  0.28974453     0.04350
C494        C  0.76157558  0.22207318  0.29025121    -0.11800
C495        C  0.73938164  0.21694186  0.29654080     0.01850
C496        C  0.73413658  0.19459579  0.30269024    -0.10330
C497        C  0.75044026  0.17755141  0.30194781     0.04340
C498        C  0.77205523  0.18310582  0.29489641    -0.09750
H499        H  0.76635960  0.23921100  0.28646265     0.09930
H500        H  0.71733523  0.19041078  0.30794096     0.07460
H501        H  0.78466200  0.17015396  0.29350757     0.07310
C502        C  0.70471876  0.26823111  0.27980599     0.04350
C503        C  0.72148266  0.25165297  0.28013765    -0.11800
C504        C  0.72177379  0.23480800  0.29677720     0.01850
C505        C  0.70496589  0.23490595  0.31339010    -0.10330
C506        C  0.68794480  0.25118671  0.31335621     0.04340
C507        C  0.68802738  0.26770392  0.29647666    -0.09750
H508        H  0.73430738  0.25178932  0.26732831     0.09930
H509        H  0.70504139  0.22221040  0.32638055     0.07460
H510        H  0.67496211  0.28023194  0.29631214     0.07310
C511        C  0.70861214  0.29714023  0.22245679     0.04350
C512        C  0.71019312  0.28080983  0.23954685    -0.11800
C513        C  0.70424010  0.28590556  0.26192358     0.01850
C514        C  0.69757577  0.30802476  0.26709211    -0.10330
C515        C  0.69586810  0.32428023  0.25016848     0.04340
C516        C  0.70080245  0.31860971  0.22800359    -0.09750
H517        H  0.71592288  0.26410852  0.23538657     0.09930
H518        H  0.69401774  0.31276592  0.28427435     0.07460
H519        H  0.69887577  0.33126062  0.21509018     0.07310
C520        C  0.65852431  0.24658880  0.37014748     0.04350
C521        C  0.67525980  0.24626731  0.35354174    -0.11800
C522        C  0.67005939  0.25102521  0.33091616     0.01850
C523        C  0.64768013  0.25592678  0.32523239    -0.10330
C524        C  0.63102675  0.25645947  0.34185098     0.04340
C525        C  0.63656617  0.25160442  0.36403569    -0.09750
H526        H  0.69235904  0.24292258  0.35837178     0.09930
H527        H  0.64312960  0.25916302  0.30795359     0.07460
H528        H  0.62347828  0.25132159  0.37663805     0.07310
O529        O  0.46631702  0.21413261  0.31677522    -0.87130
C530        C  0.40631314  0.24451097  0.31253115     0.88900
Mg531      Mg  0.49443486  0.23055319  0.33131890     1.58150
O532        O  0.43453702  0.23808210  0.26190077    -0.86860
O533        O  0.45604729  0.19702023  0.28576567    -0.74190
C534        C  0.49167428  0.33096730  0.28402614     0.93950
O535        O  0.44436309  0.25012038  0.34970168    -0.74000
O536        O  0.50092062  0.32106499  0.30044193    -0.81510
Mg537      Mg  0.43675186  0.21464450  0.33619086     1.57960
C538        C  0.44174816  0.28720157  0.21630871     0.93880
O539        O  0.42931444  0.17827096  0.32517900    -0.79770
H540        H  0.45009722  0.21852948  0.23952131    -0.05110
C541        C  0.43952680  0.29799014  0.29282852     0.88810
O542        O  0.50719615  0.23862546  0.29574039    -0.74280
O543        O  0.41978729  0.22922771  0.30855447    -0.87040
O544        O  0.42677586  0.27512581  0.22575615    -0.79850
C545        C  0.37393746  0.23580752  0.26052175     0.93990
C546        C  0.41713857  0.16820678  0.31086660     0.93840
Mg547      Mg  0.47343852  0.28391050  0.25837916     1.57950
O548        O  0.48077022  0.32039138  0.26903900    -0.79780
O549        O  0.46588378  0.24816522  0.24544815    -0.74020
O550        O  0.38417139  0.22105849  0.27201242    -0.79860
O551        O  0.45421319  0.20049348  0.36605455    -0.81570
O552        O  0.52544593  0.27887904  0.32408615    -0.79890
C553        C  0.44992685  0.23430458  0.24849469     0.88280
O554        O  0.49028551  0.26998970  0.28638532    -0.87030
O555        O  0.44355167  0.28467046  0.27735705    -0.87140
O556        O  0.45311781  0.30119428  0.30893739    -0.74190
Mg557      Mg  0.42044089  0.20993214  0.27856584     1.57970
O558        O  0.38416176  0.25139108  0.25011430    -0.81570
H559        H  0.48572911  0.19160835  0.30128989    -0.05290
O560        O  0.47535644  0.26050542  0.33282373    -0.86840
H561        H  0.46022459  0.27966905  0.35582797    -0.05120
H562        H  0.51286882  0.25522525  0.26651649    -0.05290
C563        C  0.46023287  0.26404857  0.34658575     0.88260
C564        C  0.47001073  0.20048875  0.30150553     0.88840
C565        C  0.50393320  0.25490147  0.28229087     0.88890
H566        H  0.42370797  0.30670117  0.29297562    -0.05270
O567        O  0.40288253  0.26044904  0.29869434    -0.74300
Mg568      Mg  0.48883011  0.28909398  0.31664256     1.58000
H569        H  0.39755538  0.24456876  0.32840261    -0.05290
C570        C  0.46849174  0.21113902  0.37764363     0.93880
O571        O  0.52580278  0.24713658  0.34397681    -0.81530
C572        C  0.53584342  0.26362281  0.33483365     0.93940
O573        O  0.40715618  0.17862806  0.29526050    -0.81510
Mg574      Mg  0.41555373  0.26810464  0.26283368     1.58180
O575        O  0.48332189  0.22338234  0.36823729    -0.79850
O576        O  0.45640604  0.29735622  0.22788342    -0.81540
O577        O  0.72309164  0.22649058  0.01641624    -0.87130
C578        C  0.65921017  0.22553264  0.03787448     0.88900
Mg579      Mg  0.75017165  0.21976726  0.03837837     1.58150
O580        O  0.68106482  0.27868668  0.02725742    -0.86860
O581        O  0.71147036  0.25281639  0.99339574    -0.74190
C582        C  0.72685019  0.27992643  0.12872465     0.93950
O583        O  0.70045726  0.19614252  0.05460863    -0.74000
O584        O  0.73878002  0.26334117  0.12275674    -0.81510
Mg585      Mg  0.69641884  0.20269180  0.01676565     1.57960
C586        C  0.67382500  0.33157786  0.06892225     0.93880
O587        O  0.69305151  0.20728312  0.97851241    -0.79770
H588        H  0.69588666  0.30038172  0.00633431    -0.05110
C589        C  0.68103797  0.25830464  0.09177892     0.88810
O590        O  0.75648373  0.25771185  0.04221793    -0.74280
O591        O  0.67423003  0.22941222  0.02405654    -0.87040
O592        O  0.66257852  0.31711000  0.05785540    -0.79850
C593        C  0.62174793  0.27045624  0.01700089     0.93990
C594        C  0.68134377  0.21812883  0.96434118     0.93840
Mg595      Mg  0.71198761  0.29555853  0.07620955     1.57950
O596        O  0.71593481  0.29174177  0.11467358    -0.79780
O597        O  0.70781837  0.30153943  0.03819044    -0.74020
O598        O  0.63563904  0.25860659  0.00594217    -0.79860
O599        O  0.71899545  0.17290052  0.01094838    -0.81570
O600        O  0.77171749  0.23810932  0.08813548    -0.79890
C601        C  0.69469970  0.29386051  0.02322150     0.88280
O602        O  0.73396375  0.26856546  0.06929483    -0.87030
O603        O  0.68491273  0.27207456  0.07667291    -0.87140
O604        O  0.69593720  0.24496510  0.09903591    -0.74190
Mg605      Mg  0.67372655  0.25617423  0.00047173     1.57970
O606        O  0.62802866  0.28443991  0.03184770    -0.81570
H607        H  0.74337306  0.24133250  0.99415715    -0.05290
O608        O  0.72688412  0.21937994  0.06545210    -0.86840
H609        H  0.71270134  0.19721882  0.08633649    -0.05120
H610        H  0.75563243  0.28949842  0.05449955    -0.05290
C611        C  0.71359597  0.20390313  0.06949599     0.88260
C612        C  0.72668967  0.24000741  0.00099915     0.88840
C613        C  0.74905207  0.27260838  0.05559430     0.88890
H614        H  0.66429498  0.25709623  0.09850295    -0.05270
O615        O  0.65163927  0.24070681  0.05087318    -0.74300
Mg616      Mg  0.73362221  0.24127363  0.09251550     1.58000
H617        H  0.65268543  0.20864812  0.03928160    -0.05290
C618        C  0.73422753  0.16701954  0.02455475     0.93880
O619        O  0.78043974  0.21451945  0.06066204    -0.81530
C620        C  0.78620966  0.22730410  0.07676513     0.93940
O621        O  0.66775559  0.23331204  0.97051982    -0.81510
Mg622      Mg  0.65799946  0.27880065  0.05447775     1.58180
O623        O  0.74548267  0.18152730  0.03552250    -0.79850
O624        O  0.68974110  0.32564504  0.08168973    -0.81540
C625        C  0.02833129  0.79514765  0.53954799     0.04350
C626        C  0.01210848  0.77807094  0.54099339    -0.11800
C627        C  0.98979609  0.78319819  0.54670007     0.01850
C628        C  0.98432040  0.80563487  0.55207188    -0.10330
C629        C  0.00042962  0.82285019  0.55056488     0.04340
C630        C  0.02192626  0.81743163  0.54317556    -0.09750
H631        H  0.01695792  0.76078021  0.53826011     0.09930
H632        H  0.96750653  0.80973849  0.55727963     0.07460
H633        H  0.03406324  0.83071827  0.54062246     0.07310
C634        C  0.95501515  0.73206600  0.52957597     0.04350
C635        C  0.97199976  0.74847949  0.53022301    -0.11800
C636        C  0.97223834  0.76525905  0.54690465     0.01850
C637        C  0.95523088  0.76523026  0.56326326    -0.10330
C638        C  0.93802029  0.74908446  0.56289044     0.04340
C639        C  0.93808167  0.73262443  0.54597428    -0.09750
H640        H  0.98498620  0.74831851  0.51756812     0.09930
H641        H  0.95524787  0.77792478  0.57626940     0.07460
H642        H  0.92482440  0.72022451  0.54554733     0.07310
C643        C  0.90812135  0.75409055  0.61916433     0.04350
C644        C  0.88595239  0.75077353  0.61257960    -0.11800
C645        C  0.88033329  0.74668799  0.59017687     0.01850
C646        C  0.89740559  0.74601255  0.57394174    -0.10330
C647        C  0.91991355  0.74951536  0.58010566     0.04340
C648        C  0.92507384  0.75348816  0.60284091    -0.09750
H649        H  0.87284389  0.75131676  0.62511677     0.09930
H650        H  0.89311025  0.74331293  0.55650119     0.07460
H651        H  0.94231499  0.75559094  0.60791260     0.07310
C652        C  0.94717984  0.67602680  0.49957206     0.04350
C653        C  0.94842386  0.69226751  0.51661036    -0.11800
C654        C  0.95460522  0.71458530  0.51158291     0.01850
C655        C  0.96038931  0.72005484  0.48927061    -0.10330
C656        C  0.95938111  0.70376705  0.47215260     0.04340
C657        C  0.95214070  0.68203680  0.47747393    -0.09750
H658        H  0.94492606  0.68738467  0.53377145     0.09930
H659        H  0.96563955  0.73697489  0.48518847     0.07460
H660        H  0.95097316  0.66941220  0.46442117     0.07310
O661        O  0.93554994  0.02216042  0.51571886    -0.87130
C662        C  0.99924947  0.02249303  0.53758056     0.88900
Mg663      Mg  0.90835336  0.02910933  0.53743396     1.58150
O664        O  0.97736582  0.96933207  0.52702427    -0.86860
O665        O  0.94699616  0.99527234  0.49318428    -0.74190
C666        C  0.93113188  0.96916091  0.62820834     0.93950
O667        O  0.95815486  0.05269807  0.55399832    -0.74000
O668        O  0.91930214  0.98578637  0.62217357    -0.81510
Mg669      Mg  0.96252058  0.04573680  0.51631942     1.57960
C670        C  0.98388415  0.91670148  0.56868832     0.93880
O671        O  0.96628067  0.04100265  0.47836224    -0.79770
H672        H  0.96247052  0.94777351  0.50605969    -0.05110
C673        C  0.97716698  0.99015535  0.59122970     0.88810
O674        O  0.90189767  0.99127467  0.54169910    -0.74280
O675        O  0.98425036  0.01867250  0.52376873    -0.87040
O676        O  0.99593078  0.93071246  0.55784812    -0.79850
C677        C  0.03669143  0.97781311  0.51694617     0.93990
C678        C  0.97737214  0.02984452  0.46393555     0.93840
Mg679      Mg  0.94581967  0.95319945  0.57568472     1.57950
O680        O  0.94196829  0.95717174  0.61419701    -0.79780
O681        O  0.95004525  0.94705119  0.53776343    -0.74020
O682        O  0.02264191  0.98927605  0.50572096    -0.79860
O683        O  0.94038373  0.07584068  0.51014433    -0.81570
O684        O  0.88659369  0.01138518  0.58743302    -0.79890
C685        C  0.96355016  0.95435495  0.52293218     0.88280
O686        O  0.92428931  0.98048314  0.56877266    -0.87030
O687        O  0.97333585  0.97613807  0.57633227    -0.87140
O688        O  0.96232266  0.00374832  0.59821157    -0.74190
Mg689      Mg  0.98465831  0.99173053  0.50019877     1.57970
O690        O  0.03050240  0.96370746  0.53174604    -0.81570
H691        H  0.91525214  0.00718218  0.49363334    -0.05290
O692        O  0.93144447  0.02975098  0.56470247    -0.86840
H693        H  0.94537630  0.05205590  0.58555718    -0.05120
H694        H  0.90247027  0.95959348  0.55422367    -0.05290
C695        C  0.94471451  0.04521027  0.56876974     0.88260
C696        C  0.93191475  0.00843953  0.50049266     0.88840
C697        C  0.90918123  0.97643983  0.55516697     0.88890
H698        H  0.99387476  0.99137784  0.59799306    -0.05270
O699        O  0.00674400  0.00729807  0.55057014    -0.74300
Mg700      Mg  0.92465670  0.00783278  0.59183108     1.58000
H701        H  0.00582317  0.03935708  0.53899407    -0.05290
C702        C  0.92394362  0.08176047  0.52229272     0.93880
O703        O  0.87808629  0.03462154  0.55961718    -0.81530
C704        C  0.87219647  0.02214299  0.57592919     0.93940
O705        O  0.99049745  0.01419452  0.46992322    -0.81510
Mg706      Mg  0.00039171  0.96920677  0.55427695     1.58180
O707        O  0.91256229  0.06734699  0.53331125    -0.79850
O708        O  0.96743277  0.92275350  0.58074316    -0.81540
C709        C  0.77787613  0.00493532  0.59164311     0.04350
C710        C  0.76156598  0.00430142  0.57465281    -0.11800
C711        C  0.73900817  0.99955587  0.57984776     0.01850
C712        C  0.73311944  0.99503292  0.60236118    -0.10330
C713        C  0.74928419  0.99594801  0.61939708     0.04340
C714        C  0.77136385  0.00118975  0.61388425    -0.09750
H715        H  0.76650714  0.00694955  0.55736599     0.09930
H716        H  0.71591472  0.99148573  0.60677952     0.07460
H717        H  0.78369202  0.00215810  0.62715205     0.07310
C718        C  0.70508031  0.01652942  0.52835263     0.04350
C719        C  0.72166353  0.01613876  0.54508790    -0.11800
C720        C  0.72162794  0.99950294  0.56187548     0.01850
C721        C  0.70472049  0.98304148  0.56162552    -0.10330
C722        C  0.68802001  0.98304077  0.54499638     0.04340
C723        C  0.68833613  0.99989540  0.52849863    -0.09750
H724        H  0.73454422  0.02894183  0.54514677     0.09930
H725        H  0.70454502  0.97016347  0.57445380     0.07460
H726        H  0.67547011  0.00008069  0.51574355     0.07310
C727        C  0.69870572  0.04664266  0.47219341     0.04350
C728        C  0.69989029  0.02949954  0.48841029    -0.11800
C729        C  0.70486603  0.03457740  0.51101313     0.01850
C730        C  0.70921394  0.05707024  0.51704928    -0.10330
C731        C  0.70784938  0.07424597  0.50099489     0.04340
C732        C  0.70224924  0.06889200  0.47888462    -0.09750
H733        H  0.69741489  0.01219577  0.48338670     0.09930
H734        H  0.71294618  0.06135428  0.53430819     0.07460
H735        H  0.70085235  0.08229820  0.46667602     0.07310
C736        C  0.65974712  0.92606717  0.55001439     0.04350
C737        C  0.67621417  0.94278067  0.54925480    -0.11800
C738        C  0.67041655  0.96528144  0.54482165     0.01850
C739        C  0.64774169  0.97064616  0.54085738    -0.10330
C740        C  0.63123748  0.95376935  0.54171257     0.04340
C741        C  0.63755751  0.93158402  0.54595131    -0.09750
H742        H  0.69347062  0.93822646  0.55218894     0.09930
H743        H  0.64284223  0.98791436  0.53805710     0.07460
H744        H  0.62498484  0.91843653  0.54643445     0.07310
O745        O  0.44345011  0.01928444  0.51050383    -0.87130
C746        C  0.50358067  0.01457630  0.54077750     0.88900
Mg747      Mg  0.41529485  0.03389437  0.52701314     1.58150
O748        O  0.47453872  0.96442645  0.53391908    -0.86860
O749        O  0.45390077  0.98859841  0.49289843    -0.74190
C750        C  0.41737152  0.98587442  0.62697684     0.93950
O751        O  0.46548943  0.05181597  0.54677649    -0.74000
O752        O  0.40789752  0.00210933  0.61699860    -0.81510
Mg753      Mg  0.47312018  0.03864882  0.51117246     1.57960
C754        C  0.46680258  0.91853842  0.58242688     0.93880
O755        O  0.48056655  0.02778989  0.47470091    -0.79770
H756        H  0.45869380  0.94240541  0.51414479    -0.05110
C757        C  0.46975369  0.99483468  0.59426187     0.88810
O758        O  0.40226615  0.99831074  0.53473994    -0.74280
O759        O  0.49008147  0.01085703  0.52546113    -0.87040
O760        O  0.48173615  0.92824471  0.57061963    -0.79850
C761        C  0.53526595  0.96156289  0.53246166     0.93990
C762        C  0.49277910  0.01358460  0.46451257     0.93840
Mg763      Mg  0.43567039  0.96060010  0.57984579     1.57950
O764        O  0.42863168  0.97111364  0.61647436    -0.79780
O765        O  0.44312448  0.94799406  0.54392930    -0.74020
O766        O  0.52607541  0.97396240  0.51765225    -0.79860
O767        O  0.45577498  0.06879903  0.49732809    -0.81570
O768        O  0.38417030  0.02601026  0.57486781    -0.79890
C769        C  0.45901148  0.95117438  0.53002152     0.88280
O770        O  0.41910999  0.98869668  0.56603904    -0.87030
O771        O  0.46565943  0.97959096  0.58069906    -0.87140
O772        O  0.45617801  0.01089502  0.59773743    -0.74190
Mg773      Mg  0.48944674  0.98101641  0.50601094     1.57970
O774        O  0.52354243  0.95094660  0.54673140    -0.81570
H775        H  0.42416977  0.00410257  0.48763025    -0.05290
O776        O  0.43435338  0.03504723  0.55700888    -0.86840
H777        H  0.44971476  0.05776371  0.57637047    -0.05120
H778        H  0.39641855  0.96899453  0.55114979    -0.05290
C779        C  0.44960816  0.04866679  0.56067423     0.88260
C780        C  0.43984427  0.00421141  0.49660622     0.88840
C781        C  0.40544527  0.98473981  0.55092519     0.88890
H782        H  0.48556389  0.99479196  0.60299851    -0.05270
O783        O  0.50679843  0.00055419  0.55658991    -0.74300
Mg784      Mg  0.42055504  0.01866625  0.58537945     1.58000
H785        H  0.51257583  0.03033687  0.54094789    -0.05290
C786        C  0.44147804  0.08024317  0.50809191     0.93880
O787        O  0.38401988  0.04684909  0.54376607    -0.81530
C788        C  0.37391014  0.03729620  0.55995448     0.93940
O789        O  0.50295368  0.99800100  0.47484274    -0.81510
Mg790      Mg  0.49333441  0.96486137  0.56389539     1.58180
O791        O  0.42660615  0.07072130  0.52016168    -0.79850
O792        O  0.45214599  0.92968040  0.59301236    -0.81540
O793        O  0.42377902  0.98037631  0.06859458    -0.87130
C794        C  0.44460805  0.04472285  0.06891043     0.88900
Mg795      Mg  0.44550834  0.95345981  0.07645452     1.58150
O796        O  0.43690579  0.02202570  0.01556847    -0.86860
O797        O  0.40274228  0.99098476  0.04034445    -0.74190
C798        C  0.53758289  0.97639144  0.01874220     0.93950
O799        O  0.46059531  0.00401074  0.09931858    -0.74000
O800        O  0.53126576  0.96476807  0.03549417    -0.81510
Mg801      Mg  0.42311426  0.00779989  0.09160956     1.57960
C802        C  0.47964857  0.02921878  0.96446676     0.93880
O803        O  0.38516910  0.01128225  0.08583952    -0.79770
H804        H  0.41692653  0.00708068  0.99319144    -0.05110
C805        C  0.50017774  0.02235571  0.03845482     0.88810
O806        O  0.45080815  0.94678643  0.03876551    -0.74280
O807        O  0.43092204  0.02969043  0.06456481    -0.87040
O808        O  0.46872683  0.04067024  0.97884312    -0.79850
C809        C  0.42518861  0.08152759  0.02213110     0.93990
C810        C  0.37164187  0.02195344  0.07325506     0.93840
Mg811      Mg  0.48593771  0.99080668  0.00104684     1.57950
O812        O  0.52393018  0.98699903  0.00624173    -0.79780
O813        O  0.44849000  0.99476248  0.99361867    -0.74020
O814        O  0.41289724  0.06736847  0.03245112    -0.79860
O815        O  0.41671726  0.98561249  0.12188415    -0.81570
O816        O  0.49626923  0.93137230  0.06029890    -0.79890
C817        C  0.43345675  0.00822510  0.00039309     0.88280
O818        O  0.47830434  0.96902861  0.02829771    -0.87030
O819        O  0.48562653  0.01820594  0.02427954    -0.87140
O820        O  0.50685876  0.00766094  0.05238222    -0.74190
Mg821      Mg  0.40902933  0.02889601  0.03623250     1.57970
O822        O  0.44226455  0.07563526  0.01088586    -0.81570
H823        H  0.40284722  0.95934009  0.05298156    -0.05290
O824        O  0.47252711  0.97682588  0.07743220    -0.86840
H825        H  0.49229799  0.99202399  0.09983877    -0.05120
H826        H  0.46402632  0.94700541  0.00738490    -0.05290
C827        C  0.47580767  0.99071464  0.09257382     0.88260
C828        C  0.40940242  0.97622914  0.05423278     0.88840
C829        C  0.46465833  0.95389750  0.02415624     0.88890
H830        H  0.50683077  0.03921775  0.03954424    -0.05270
O831        O  0.45867411  0.05177356  0.05449277    -0.74300
Mg832      Mg  0.50038032  0.96984297  0.05651191     1.58000
H833        H  0.44512412  0.05152269  0.08572389    -0.05290
C834        C  0.42923016  0.96966035  0.12836439     0.93880
O835        O  0.46740872  0.92339910  0.08267385    -0.81530
C836        C  0.48411692  0.91735675  0.07098512     0.93940
O837        O  0.37811653  0.03396890  0.05687819    -0.81510
Mg838      Mg  0.46401787  0.04526146  0.01683660     1.58180
O839        O  0.44089092  0.95807916  0.11470881    -0.79850
O840        O  0.49199087  0.01293614  0.97052364    -0.81540
O841        O  0.67292186  0.77144381  0.06491528    -0.87130
C842        C  0.69445739  0.77358950  0.00109898     0.88900
Mg843      Mg  0.69425962  0.77810678  0.09236342     1.58150
O844        O  0.68512582  0.72000687  0.02267306    -0.86860
O845        O  0.65050503  0.74462263  0.05335375    -0.74190
C846        C  0.78619443  0.72083021  0.06853326     0.93950
O847        O  0.71071055  0.80265705  0.04306314    -0.74000
O848        O  0.78009789  0.73669062  0.08147370    -0.81510
Mg849      Mg  0.67318538  0.79558028  0.03845251     1.57960
C850        C  0.72728493  0.66838887  0.01477323     0.93880
O851        O  0.63540196  0.79057661  0.03426624    -0.79770
H852        H  0.66474674  0.69756826  0.03711077    -0.05110
C853        C  0.74894493  0.74194754  0.02329229     0.88810
O854        O  0.69891326  0.74028861  0.09820593    -0.74280
O855        O  0.68071292  0.76914065  0.01603432    -0.87040
O856        O  0.71624196  0.68288511  0.00365870    -0.79850
C857        C  0.67497761  0.72856864  0.96314543     0.93990
C858        C  0.62117612  0.77929840  0.02300891     0.93840
Mg859      Mg  0.73403165  0.70409939  0.05361294     1.57950
O860        O  0.77192471  0.70934868  0.05749774    -0.79780
O861        O  0.69638989  0.69713051  0.04929792    -0.74020
O862        O  0.66322231  0.73907209  0.97755994    -0.79860
O863        O  0.66678989  0.82519107  0.06136297    -0.81570
O864        O  0.74494002  0.76160784  0.11481040    -0.79890
C865        C  0.68140567  0.70455435  0.03611818     0.88280
O866        O  0.72672053  0.73053849  0.07619756    -0.87030
O867        O  0.73399652  0.72799094  0.02694929    -0.87140
O868        O  0.75607601  0.75512566  0.03850052    -0.74190
Mg869      Mg  0.65780507  0.74156454  0.01559969     1.57970
O870        O  0.69069914  0.71557703  0.96912901    -0.81570
H871        H  0.65084420  0.75649177  0.08528253    -0.05290
O872        O  0.72185132  0.77968350  0.06962990    -0.86840
H873        H  0.74222479  0.80235036  0.05555716    -0.05120
H874        H  0.71217324  0.70897433  0.09743198    -0.05290
C875        C  0.72559715  0.79526099  0.05634795     0.88260
C876        C  0.65771807  0.75776318  0.06854708     0.88840
C877        C  0.71290123  0.72593937  0.09100836     0.88890
H878        H  0.75566989  0.74342556  0.00651155    -0.05270
O879        O  0.70807497  0.75900231  0.99362448    -0.74300
Mg880      Mg  0.74939806  0.75837115  0.07640386     1.58000
H881        H  0.69535458  0.79055197  0.99469581    -0.05290
C882        C  0.67923476  0.83085573  0.07768619     0.93880
O883        O  0.71563795  0.78329679  0.12287050    -0.81530
C884        C  0.73253091  0.77191496  0.12883710     0.93940
O885        O  0.62723475  0.76347052  0.01001271    -0.81510
Mg886      Mg  0.71244312  0.72107847  0.99962461     1.58180
O887        O  0.69014766  0.81625133  0.08877666    -0.79850
O888        O  0.74013454  0.67426195  0.03072295    -0.81540
C889        C  0.74711063  0.07304937  0.04466628     0.04350
C890        C  0.73145441  0.05552465  0.04332383    -0.11800
C891        C  0.73819976  0.03302213  0.04632393     0.01850
C892        C  0.76103728  0.02829581  0.04984632    -0.10330
C893        C  0.77678233  0.04583786  0.05064488     0.04340
C894        C  0.76942678  0.06801090  0.04888161    -0.09750
H895        H  0.71404875  0.05945989  0.04039176     0.09930
H896        H  0.76659557  0.01104895  0.05112043     0.07460
H897        H  0.78147789  0.08160054  0.04984275     0.07310
C898        C  0.70498046  0.98082421  0.06252592     0.04350
C899        C  0.72152707  0.99766835  0.06212628    -0.11800
C900        C  0.72139920  0.01456798  0.04566366     0.01850
C901        C  0.70473092  0.01426468  0.02907476    -0.10330
C902        C  0.68818560  0.99745120  0.02881129     0.04340
C903        C  0.68847262  0.98083184  0.04566191    -0.09750
H904        H  0.73442153  0.99787504  0.07484147     0.09930
H905        H  0.70449313  0.02737491  0.01648067     0.07460
H906        H  0.67564803  0.96799175  0.04579535     0.07310
C907        C  0.70937840  0.95349722  0.12048339     0.04350
C908        C  0.70198420  0.93177353  0.11554482    -0.11800
C909        C  0.69723409  0.92521621  0.09353541     0.01850
C910        C  0.69830234  0.94123408  0.07624810    -0.10330
C911        C  0.70453274  0.96363789  0.08085536     0.04340
C912        C  0.71037463  0.96948463  0.10309162    -0.09750
H913        H  0.70014252  0.91964707  0.12898589     0.09930
H914        H  0.69491847  0.93607160  0.05916268     0.07460
H915        H  0.71560728  0.98645883  0.10693330     0.07310
C916        C  0.65789760  0.00534781  0.97292907     0.04350
C917        C  0.63581848  0.00152043  0.97966616    -0.11800
C918        C  0.63069376  0.99420318  0.00136029     0.01850
C919        C  0.64790702  0.99269031  0.01730851    -0.10330
C920        C  0.67016694  0.99791496  0.01146413     0.04340
C921        C  0.67504549  0.00378945  0.98900027    -0.09750
H922        H  0.62241980  0.00393272  0.96771140     0.09930
H923        H  0.64391218  0.98758098  0.03427493     0.07460
H924        H  0.69220011  0.00658922  0.98392815     0.07310
O925        O  0.72706650  0.01883108  0.76597434    -0.87130
C926        C  0.72596721  0.95428125  0.78646757     0.88900
Mg927      Mg  0.73430199  0.04594196  0.78782788     1.58150
O928        O  0.67377837  0.97769586  0.77626685    -0.86860
O929        O  0.70039864  0.00831757  0.74293367    -0.74190
C930        C  0.67347327  0.02310938  0.87819538     0.93950
O931        O  0.75568699  0.99499636  0.80435706    -0.74000
O932        O  0.68960548  0.03577053  0.87232526    -0.81510
Mg933      Mg  0.74960025  0.99117324  0.76642937     1.57960
C934        C  0.62136928  0.97120586  0.81719803     0.93880
O935        O  0.74545370  0.98821880  0.72811473    -0.79770
H936        H  0.65245642  0.99299431  0.75550533    -0.05110
C937        C  0.69415186  0.97723303  0.84080775     0.88810
O938        O  0.69669495  0.05290081  0.79161071    -0.74280
O939        O  0.72230108  0.96966432  0.77297714    -0.87040
O940        O  0.63559360  0.95963173  0.80626882    -0.79850
C941        C  0.68052092  0.91795469  0.76496443     0.93990
C942        C  0.73412651  0.97744488  0.71352901     0.93840
Mg943      Mg  0.65792523  0.00877338  0.82534360     1.57950
O944        O  0.66218778  0.01217427  0.86367037    -0.79780
O945        O  0.65173984  0.00501927  0.78737503    -0.74020
O946        O  0.69151888  0.93245748  0.75372248    -0.79860
O947        O  0.78008656  0.01259402  0.76143146    -0.81570
O948        O  0.71636011  0.06849737  0.83799077    -0.79890
C949        C  0.65897651  0.99166880  0.77235695     0.88280
O950        O  0.68519786  0.03062799  0.81867667    -0.87030
O951        O  0.68073918  0.98129846  0.82552692    -0.87140
O952        O  0.70741523  0.99212473  0.84844605    -0.74190
Mg953      Mg  0.69568635  0.97048171  0.74930605     1.57970
O954        O  0.66772117  0.92383936  0.78098550    -0.81570
H955        H  0.71315567  0.03991663  0.74395425    -0.05290
O956        O  0.73412623  0.02281612  0.81524632    -0.86840
H957        H  0.75522138  0.00733580  0.83610218    -0.05120
H958        H  0.66498887  0.05271912  0.80371674    -0.05290
C959        C  0.74872129  0.00864120  0.81923806     0.88260
C960        C  0.71380428  0.02304374  0.75060550     0.88840
C961        C  0.68161796  0.04579264  0.80492139     0.88890
H962        H  0.69503166  0.96036677  0.84744484    -0.05270
O963        O  0.71097859  0.94700250  0.79977861    -0.74300
Mg964      Mg  0.71205124  0.03006879  0.84220993     1.58000
H965        H  0.74260025  0.94733081  0.78745596    -0.05290
C966        C  0.78626134  0.02899436  0.77356447     0.93880
O967        O  0.73989927  0.07617249  0.80991580    -0.81530
C968        C  0.72767285  0.08236485  0.82622622     0.93940
O969        O  0.71814358  0.96453540  0.71923648    -0.81510
Mg970      Mg  0.67346220  0.95423372  0.80339161     1.58180
O971        O  0.77245247  0.04119287  0.78436287    -0.79850
O972        O  0.62744031  0.98669466  0.83059120    -0.81540
C973        C  0.02756605  0.99812017  0.84009608     0.04350
C974        C  0.01023699  0.99580828  0.82428037    -0.11800
C975        C  0.98789329  0.00087811  0.83006375     0.01850
C976        C  0.98291690  0.00660498  0.85258545    -0.10330
C977        C  0.00015604  0.00854517  0.86847544     0.04340
C978        C  0.02228625  0.00619418  0.86146015    -0.09750
H979        H  0.01408821  0.99005203  0.80751537     0.09930
H980        H  0.96573531  0.00866779  0.85788926     0.07460
H981        H  0.03549726  0.00926209  0.87349126     0.07310
C982        C  0.93663897  0.01664536  0.79544882     0.04350
C983        C  0.95323021  0.01657896  0.81216930    -0.11800
C984        C  0.96988982  0.99996946  0.81266942     0.01850
C985        C  0.96969446  0.98308132  0.79607542    -0.10330
C986        C  0.95328427  0.98266844  0.77911625     0.04340
C987        C  0.93684497  0.99958866  0.77903241    -0.09750
H988        H  0.95322336  0.02959446  0.82486402     0.09930
H989        H  0.98248360  0.97027912  0.79626965     0.07460
H990        H  0.92412247  0.99947148  0.76616123     0.07310
C991        C  0.90707144  0.07301637  0.80309672     0.04350
C992        C  0.88486908  0.06629089  0.80006412    -0.11800
C993        C  0.87946755  0.04478070  0.79236914     0.01850
C994        C  0.89651683  0.02866616  0.79052182    -0.10330
C995        C  0.91885540  0.03426641  0.79562069     0.04340
C996        C  0.92405090  0.05677973  0.80111423    -0.09750
H997        H  0.87155749  0.07817754  0.80318646     0.09930
H998        H  0.89236197  0.01177304  0.78527716     0.07460
H999        H  0.94132255  0.06169116  0.80333229     0.07310
C1000       C  0.96073000  0.92586613  0.75005723     0.04350
C1001       C  0.95542159  0.93136358  0.72791321    -0.11800
C1002       C  0.94852755  0.95305938  0.72216678     0.01850
C1003       C  0.94781153  0.96974238  0.73895095    -0.10330
C1004       C  0.95353375  0.96474215  0.76140328     0.04340
C1005       C  0.95963109  0.94248952  0.76678053    -0.09750
H1006       H  0.95645509  0.91849791  0.71508651     0.09930
H1007       H  0.94292335  0.98663044  0.73443793     0.07460
H1008       H  0.96342199  0.93797333  0.78395615     0.07310
O1009       O  0.93095042  0.73039368  0.76612273    -0.87130
C1010       C  0.93082245  0.79476799  0.78687678     0.88900
Mg1011     Mg  0.92381396  0.70337547  0.78815590     1.58150
O1012       O  0.98351893  0.77218548  0.77658662    -0.86860
O1013       O  0.95751565  0.74144676  0.74314465    -0.74190
C1014       C  0.98326417  0.72713596  0.87827922     0.93950
O1015       O  0.90097361  0.75345532  0.80405857    -0.74000
O1016       O  0.96697849  0.71476976  0.87240186    -0.81510
Mg1017     Mg  0.90764469  0.75730380  0.76618199     1.57960
C1018       C  0.03599393  0.77938328  0.81797178     0.93880
O1019       O  0.91228015  0.76065300  0.72813454    -0.79770
H1020       H  0.00493788  0.75693195  0.75581678    -0.05110
C1021       C  0.96281850  0.77263350  0.84095804     0.88810
O1022       O  0.96143389  0.69670472  0.79198614    -0.74280
O1023       O  0.93452974  0.77955585  0.77318324    -0.87040
O1024       O  0.02166304  0.79073042  0.80697933    -0.79850
C1025       C  0.97664197  0.83176669  0.76539397     0.93990
C1026       C  0.92339926  0.77178500  0.71365823     0.93840
Mg1027     Mg  0.99956302  0.74123488  0.82573768     1.57950
O1028       O  0.99523043  0.73790043  0.86415983    -0.79780
O1029       O  0.00572408  0.74502511  0.78772581    -0.74020
O1030       O  0.96488434  0.81788182  0.75415144    -0.79860
O1031       O  0.87791347  0.73448238  0.76017029    -0.81570
O1032       O  0.94154306  0.68126546  0.83835704    -0.79890
C1033       C  0.99840246  0.75827804  0.77268157     0.88280
O1034       O  0.97244322  0.71921250  0.81906826    -0.87030
O1035       O  0.97652010  0.76856381  0.82589532    -0.87140
O1036       O  0.94938884  0.75776730  0.84836102    -0.74190
Mg1037     Mg  0.96145612  0.77939643  0.74965335     1.57970
O1038       O  0.98957436  0.82552574  0.78107579    -0.81570
H1039       H  0.94544419  0.70956665  0.74417926    -0.05290
O1040       O  0.92359839  0.72668889  0.81517596    -0.86840
H1041       H  0.90173590  0.74136959  0.83589775    -0.05120
H1042       H  0.99300321  0.69724134  0.80433657    -0.05290
C1043       C  0.90842808  0.74026991  0.81907730     0.88260
C1044       C  0.94440205  0.72642825  0.75081130     0.88840
C1045       C  0.97629684  0.70401091  0.80539615     0.88890
H1046       H  0.96176790  0.78952172  0.84752895    -0.05270
O1047       O  0.94592217  0.80222681  0.79994560    -0.74300
Mg1048     Mg  0.94520283  0.71981310  0.84226308     1.58000
H1049       H  0.91412607  0.80151670  0.78815816    -0.05290
C1050       C  0.87178822  0.71928847  0.77384440     0.93880
O1051       O  0.91826069  0.67322665  0.81030010    -0.81530
C1052       C  0.93053252  0.66720282  0.82657852     0.93940
O1053       O  0.93910248  0.78493214  0.71956531    -0.81510
Mg1054     Mg  0.98364696  0.79550562  0.80366842     1.58180
O1055       O  0.88578326  0.70819336  0.78546573    -0.79850
O1056       O  0.02995760  0.76344291  0.83085934    -0.81540
C1057       C  0.94756132  0.79534573  0.11955512     0.04350
C1058       C  0.95227917  0.81762848  0.11399434    -0.11800
C1059       C  0.95906933  0.82365253  0.09236654     0.01850
C1060       C  0.95993511  0.80701811  0.07558703    -0.10330
C1061       C  0.95431593  0.78448782  0.08056794     0.04340
C1062       C  0.94832871  0.77881827  0.10279112    -0.09750
H1063       H  0.95074725  0.83044595  0.12682603     0.09930
H1064       H  0.96476004  0.81165831  0.05869620     0.07460
H1065       H  0.94489776  0.76150720  0.10721927     0.07310
C1066       C  0.97172367  0.75002359  0.02933272     0.04350
C1067       C  0.97154148  0.76649668  0.04629524    -0.11800
C1068       C  0.95459287  0.76688763  0.06270800     0.01850
C1069       C  0.93768919  0.75043272  0.06198917    -0.10330
C1070       C  0.93753948  0.73368789  0.04534458     0.04340
C1071       C  0.95469234  0.73361748  0.02914464    -0.09750
H1072       H  0.98455410  0.77915330  0.04661436     0.09930
H1073       H  0.92456961  0.75063091  0.07451441     0.07460
H1074       H  0.95470081  0.72080781  0.01625998     0.07310
C1075       C  0.02781714  0.75668944  0.99930666     0.04350
C1076       C  0.02101017  0.75428678  0.97702023    -0.11800
C1077       C  0.99943492  0.74721798  0.97162301     0.01850
C1078       C  0.98343621  0.74569541  0.98888724    -0.10330
C1079       C  0.98919962  0.75051733  0.01137141     0.04340
C1080       C  0.01174626  0.75547142  0.01651290    -0.09750
H1081       H  0.03320477  0.75664886  0.96376286     0.09930
H1082       H  0.96653381  0.74071349  0.98484125     0.07460
H1083       H  0.01689866  0.75747056  0.03381059     0.07310
C1084       C  0.88047619  0.70527858  0.05109774     0.04350
C1085       C  0.88643309  0.68289729  0.04746328    -0.11800
C1086       C  0.90803972  0.67696074  0.04101898     0.01850
C1087       C  0.92472625  0.69358251  0.04021931    -0.10330
C1088       C  0.91958655  0.71618496  0.04516661     0.04340
C1089       C  0.89719877  0.72192414  0.05013584    -0.09750
H1090       H  0.87395922  0.66981617  0.04944728     0.09930
H1091       H  0.94166244  0.68884898  0.03598582     0.07460
H1092       H  0.89273186  0.73933485  0.05275883     0.07310
O1093       O  0.97388523  0.96553178  0.03488508    -0.87130
C1094       C  0.96769357  0.99563884  0.09514804     0.88900
Mg1095     Mg  0.98924098  0.98241756  0.00723241     1.58150
O1096       O  0.91836141  0.98869293  0.06519207    -0.86860
O1097       O  0.94301157  0.94788481  0.04447388    -0.74190
C1098       C  0.94075886  0.08178312  0.00766966     0.93950
O1099       O  0.00536579  0.00211665  0.05794283    -0.74000
O1100       O  0.95723398  0.07179514  0.99868882    -0.81510
Mg1101     Mg  0.99232004  0.96630736  0.06513456     1.57960
C1102       C  0.87298412  0.03780479  0.05729141     0.93880
O1103       O  0.98164481  0.92978283  0.07222493    -0.79770
H1104       H  0.89674535  0.96883475  0.04897065    -0.05110
C1105       C  0.94853693  0.04942711  0.06066002     0.88810
O1106       O  0.95418951  0.98967027  0.99307482    -0.74280
O1107       O  0.96424051  0.98028071  0.08154700    -0.87040
O1108       O  0.88233974  0.02582816  0.07229364    -0.79850
C1109       C  0.91456402  0.98694822  0.12615324     0.93990
C1110       C  0.96714992  0.91934840  0.08389294     0.93840
Mg1111     Mg  0.91534444  0.03446691  0.02587739     1.57950
O1112       O  0.92565681  0.07123733  0.01849448    -0.79780
O1113       O  0.90274565  0.99854504  0.03332053    -0.74020
O1114       O  0.92678842  0.97206588  0.11684639    -0.79860
O1115       O  0.02269881  0.95265149  0.04844235    -0.81570
O1116       O  0.98133295  0.02961617  0.97509495    -0.79890
C1117       C  0.90549776  0.98473107  0.04939330     0.88280
O1118       O  0.94371376  0.02083211  0.00976832    -0.87030
O1119       O  0.93363457  0.03560667  0.05634162    -0.87140
O1120       O  0.96477986  0.05301762  0.04730343    -0.74190
Mg1121     Mg  0.93459896  0.96071819  0.08013506     1.57970
O1122       O  0.90454571  0.00163403  0.11446595    -0.81570
H1123       H  0.95927121  0.94278659  0.01496116    -0.05290
O1124       O  0.98936351  0.01226940  0.02639317    -0.86840
H1125       H  0.01133251  0.03190299  0.04241651    -0.05120
H1126       H  0.92494392  0.00556898  0.98653301    -0.05290
C1127       C  0.00246104  0.01607413  0.04202918     0.88260
C1128       C  0.95896250  0.95165463  0.03077897     0.88840
C1129       C  0.94034641  0.00561163  0.99597835     0.88890
H1130       H  0.94802548  0.05829093  0.07647997    -0.05270
O1131       O  0.95380470  0.01154181  0.09802510    -0.74300
Mg1132     Mg  0.97338200  0.04038849  0.01175595     1.58000
H1133       H  0.98316994  0.99581449  0.10446862    -0.05290
C1134       C  0.03457476  0.96347785  0.03451318     0.93880
O1135       O  0.00330430  0.99978783  0.97679426    -0.81530
C1136       C  0.99340600  0.01486003  0.96545031     0.93940
O1137       O  0.95113826  0.92941226  0.09362226    -0.81510
Mg1138     Mg  0.91861978  0.01877174  0.08407470     1.58180
O1139       O  0.02556240  0.97583521  0.01959563    -0.79850
O1140       O  0.88439746  0.04742545  0.04211181    -0.81540
O1141       O  0.98865305  0.48159849  0.05815412    -0.87130
C1142       C  0.95837796  0.48525456  0.99799076     0.88900
Mg1143     Mg  0.97209748  0.46676021  0.08609021     1.58150
O1144       O  0.96411387  0.53620769  0.02619995    -0.86860
O1145       O  0.00514517  0.51291747  0.04775574    -0.74190
C1146       C  0.87215558  0.51380968  0.08354437     0.93950
O1147       O  0.95355126  0.44803508  0.03575709    -0.74000
O1148       O  0.88250059  0.49749022  0.09249282    -0.81510
Mg1149     Mg  0.98875668  0.46223294  0.02847448     1.57960
C1150       C  0.91561692  0.58149357  0.03228550     0.93880
O1151       O  0.02507379  0.47442564  0.02148507    -0.79770
H1152       H  0.98364447  0.55877855  0.04153252    -0.05110
C1153       C  0.90446250  0.50531084  0.03104537     0.88810
O1154       O  0.96369451  0.50224927  0.09896224    -0.74280
O1155       O  0.97361690  0.48957691  0.01138118    -0.87040
O1156       O  0.92681370  0.57104861  0.01743776    -0.79850
C1157       C  0.96638428  0.53802040  0.96518051     0.93990
C1158       C  0.03430002  0.48909203  0.00890882     0.93840
Mg1159     Mg  0.91877360  0.54003247  0.06527787     1.57950
O1160       O  0.88231040  0.52928197  0.07277439    -0.79780
O1161       O  0.95430300  0.55284455  0.05761812    -0.74020
O1162       O  0.98131023  0.52662701  0.97522934    -0.79860
O1163       O  0.00300765  0.43238281  0.04616234    -0.81570
O1164       O  0.92421665  0.47407238  0.11664839    -0.79890
C1165       C  0.96794717  0.54976057  0.04151348     0.88280
O1166       O  0.93266629  0.51174755  0.08174515    -0.87030
O1167       O  0.91774353  0.52075851  0.03516864    -0.87140
O1168       O  0.90156045  0.48892067  0.04443444    -0.74190
Mg1169     Mg  0.99213210  0.51990446  0.01191532     1.57970
O1170       O  0.95087543  0.54779371  0.97592977    -0.81570
H1171       H  0.01069902  0.49761078  0.07769773    -0.05290
O1172       O  0.94258476  0.46523847  0.06644659    -0.86840
H1173       H  0.92393355  0.44181005  0.05126977    -0.05120
H1174       H  0.94723042  0.53146734  0.10466761    -0.05290
C1175       C  0.93938181  0.45124974  0.05138538     0.88260
C1176       C  0.00191453  0.49717023  0.06187306     0.88840
C1177       C  0.94758542  0.51575191  0.09559505     0.88890
H1178       H  0.89562938  0.50537549  0.01523664    -0.05270
O1179       O  0.94229925  0.49879699  0.99459279    -0.74300
Mg1180     Mg  0.91400895  0.48132933  0.08007171     1.58000
H1181       H  0.95847177  0.46931339  0.98931775    -0.05290
C1182       C  0.99263841  0.42069399  0.06066158     0.93880
O1183       O  0.95521596  0.45341361  0.11707064    -0.81530
C1184       C  0.93902690  0.46288540  0.12707237     0.93940
O1185       O  0.02264940  0.50334020  0.99833819    -0.81510
Mg1186     Mg  0.93432683  0.53462998  0.00702542     1.58180
O1187       O  0.97995194  0.42999710  0.07513610    -0.79850
O1188       O  0.90618152  0.57151628  0.04860918    -0.81540
C1189       C  0.94998626  0.57345858  0.84177523     0.04350
C1190       C  0.95655715  0.56766457  0.86351674    -0.11800
C1191       C  0.96138972  0.54547638  0.86916159     0.01850
C1192       C  0.96108031  0.52878980  0.85256455    -0.10330
C1193       C  0.95550842  0.53424705  0.83021958     0.04340
C1194       C  0.94965360  0.55665472  0.82509608    -0.09750
H1195       H  0.95727166  0.58038928  0.87650715     0.09930
H1196       H  0.96433018  0.51153050  0.85724794     0.07460
H1197       H  0.94476533  0.56100222  0.80817519     0.07310
C1198       C  0.97225528  0.48322567  0.79510855     0.04350
C1199       C  0.97203875  0.49995901  0.81184791    -0.11800
C1200       C  0.95531192  0.51650891  0.81244967     0.01850
C1201       C  0.93840588  0.51598047  0.79608952    -0.10330
C1202       C  0.93811635  0.49937551  0.77925931     0.04340
C1203       C  0.95523379  0.48322134  0.77880181    -0.09750
H1204       H  0.98494084  0.50010150  0.82454936     0.09930
H1205       H  0.92532315  0.52848937  0.79650755     0.07460
H1206       H  0.95516124  0.47052805  0.76579542     0.07310
C1207       C  0.02855100  0.45444588  0.80254091     0.04350
C1208       C  0.01213969  0.47113082  0.80117564    -0.11800
C1209       C  0.99005692  0.46562379  0.79505246     0.01850
C1210       C  0.98509493  0.44314352  0.78928518    -0.10330
C1211       C  0.00163767  0.42634799  0.79032810     0.04340
C1212       C  0.02313917  0.43220302  0.79751679    -0.09750
H1213       H  0.01669374  0.48837343  0.80477590     0.09930
H1214       H  0.96834089  0.43863469  0.78417347     0.07460
H1215       H  0.03593141  0.41944373  0.79897632     0.07310
C1216       C  0.88013545  0.50274880  0.75341585     0.04350
C1217       C  0.89744578  0.50278671  0.76920892    -0.11800
C1218       C  0.91968734  0.49873553  0.76243506     0.01850
C1219       C  0.92420728  0.49480778  0.73945934    -0.10330
C1220       C  0.90674909  0.49474359  0.72363682     0.04340
C1221       C  0.88481002  0.49792595  0.73105787    -0.09750
H1222       H  0.89357146  0.50614770  0.78664668     0.09930
H1223       H  0.94127980  0.49275209  0.73381171     0.07460
H1224       H  0.87114370  0.49738905  0.71914303     0.07310
O1225       O  0.97415341  0.46364996  0.53514872    -0.87130
C1226       C  0.96948739  0.49519052  0.59483854     0.88900
Mg1227     Mg  0.98877000  0.47972767  0.50678004     1.58150
O1228       O  0.91939681  0.48818461  0.56593425    -0.86860
O1229       O  0.94334472  0.44662012  0.54582316    -0.74190
C1230       C  0.94181080  0.58022720  0.50740232     0.93950
O1231       O  0.00693959  0.49978595  0.55690052    -0.74000
O1232       O  0.95852101  0.57022223  0.49885219    -0.81510
Mg1233     Mg  0.99327615  0.46439440  0.56491993     1.57960
C1234       C  0.87421311  0.53745083  0.55825050     0.93880
O1235       O  0.98155543  0.42781905  0.57261635    -0.79770
H1236       H  0.89749229  0.46815383  0.55032502    -0.05110
C1237       C  0.95010336  0.54826690  0.56046557     0.88810
O1238       O  0.95359688  0.48761020  0.49356679    -0.74280
O1239       O  0.96569146  0.47960016  0.58159432    -0.87040
O1240       O  0.88374371  0.52569854  0.57330235    -0.79850
C1241       C  0.91595978  0.48726679  0.62691029     0.93990
C1242       C  0.96699839  0.41864476  0.58532922     0.93840
Mg1243     Mg  0.91618484  0.53330403  0.52614157     1.57950
O1244       O  0.92658035  0.56978103  0.51812316    -0.79780
O1245       O  0.90344322  0.49757524  0.53412337    -0.74020
O1246       O  0.92831096  0.47245503  0.61772293    -0.79860
O1247       O  0.02342030  0.45017715  0.54765537    -0.81570
O1248       O  0.98211845  0.52765091  0.47507341    -0.79890
C1249       C  0.90631751  0.48401470  0.55037780     0.88280
O1250       O  0.94430444  0.51936887  0.50986277    -0.87030
O1251       O  0.93486366  0.53476333  0.55635419    -0.87140
O1252       O  0.96642921  0.55125671  0.54708546    -0.74190
Mg1253     Mg  0.93581464  0.46059006  0.58124852     1.57970
O1254       O  0.90631333  0.50214332  0.61519454    -0.81570
H1255       H  0.95888713  0.44059648  0.51609576    -0.05290
O1256       O  0.99024560  0.50994038  0.52568944    -0.86840
H1257       H  0.01316657  0.52920544  0.54079064    -0.05120
H1258       H  0.92476088  0.50426535  0.48718934    -0.05290
C1259       C  0.00390388  0.51359702  0.54087886     0.88260
C1260       C  0.95900684  0.44986444  0.53168624     0.88840
C1261       C  0.94032944  0.50404218  0.49635721     0.88890
H1262       H  0.94987726  0.55727426  0.57621383    -0.05270
O1263       O  0.95563746  0.51112467  0.59782554    -0.74300
Mg1264     Mg  0.97445221  0.53844606  0.51156020     1.58000
H1265       H  0.98516491  0.49549274  0.60380596    -0.05290
C1266       C  0.03473032  0.46058816  0.53287685     0.93880
O1267       O  0.00184063  0.49594791  0.47535389    -0.81530
C1268       C  0.99278684  0.51216791  0.46492374     0.93940
O1269       O  0.95272411  0.43044426  0.59575355    -0.81510
Mg1270     Mg  0.92017241  0.51850416  0.58444083     1.58180
O1271       O  0.02518761  0.47255600  0.51798776    -0.79850
O1272       O  0.88542533  0.54657196  0.54260650    -0.81540
C1273       C  0.50010673  0.82362548  0.05192509     0.04350
C1274       C  0.52162856  0.81789063  0.04482849    -0.11800
C1275       C  0.52723474  0.79568383  0.03973469     0.01850
C1276       C  0.51056904  0.77902867  0.04023147    -0.10330
C1277       C  0.48844698  0.78443643  0.04644717     0.04340
C1278       C  0.48354294  0.80679568  0.05260819    -0.09750
H1279       H  0.53435078  0.83079588  0.04343347     0.09930
H1280       H  0.51503121  0.76181101  0.03651315     0.07460
H1281       H  0.46680025  0.81116622  0.05783826     0.07310
C1282       C  0.43677810  0.75044718  0.06355357     0.04350
C1283       C  0.45387565  0.76675690  0.06340388    -0.11800
C1284       C  0.47055838  0.76681581  0.04666226     0.01850
C1285       C  0.46993981  0.75011379  0.02992243    -0.10330
C1286       C  0.45310604  0.73356922  0.02977008     0.04340
C1287       C  0.43665537  0.73395190  0.04665120    -0.09750
H1288       H  0.45417558  0.77947677  0.07636303     0.09930
H1289       H  0.48261726  0.74998112  0.01695559     0.07460
H1290       H  0.42368802  0.72125175  0.04664905     0.07310
C1291       C  0.38041197  0.74378786  0.09300565     0.04350
C1292       C  0.39683665  0.74461058  0.07615038    -0.11800
C1293       C  0.41912346  0.75042442  0.08137528     0.01850
C1294       C  0.42440725  0.75606656  0.10376430    -0.10330
C1295       C  0.40789851  0.75568070  0.12060583     0.04340
C1296       C  0.38616441  0.74914439  0.11506319    -0.09750
H1297       H  0.39214070  0.74090498  0.05900223     0.09930
H1298       H  0.44134412  0.76065405  0.10818080     0.07460
H1299       H  0.37344019  0.74855008  0.12801365     0.07310
C1300       C  0.45732961  0.70391200  0.97299826     0.04350
C1301       C  0.45800426  0.72078408  0.98955823    -0.11800
C1302       C  0.45261885  0.71576858  0.01211464     0.01850
C1303       C  0.44691437  0.69347197  0.01781035    -0.10330
C1304       C  0.44584883  0.67682316  0.00123720     0.04340
C1305       C  0.45067503  0.68221172  0.97901432    -0.09750
H1306       H  0.46268264  0.73771778  0.98485915     0.09930
H1307       H  0.44385322  0.68888940  0.03513532     0.07460
H1308       H  0.44979461  0.66912958  0.96637907     0.07310
O1309       O  0.41949569  0.48801322  0.06505927    -0.87130
C1310       C  0.44838420  0.54887298  0.06068881     0.88900
Mg1311     Mg  0.43644821  0.46064992  0.08031241     1.58150
O1312       O  0.44391528  0.52038002  0.00986682    -0.86860
O1313       O  0.40347414  0.49721120  0.03318089    -0.74190
C1314       C  0.53547390  0.46267195  0.03192947     0.93950
O1315       O  0.45511905  0.51139952  0.09730518    -0.74000
O1316       O  0.52526727  0.45262803  0.04775320    -0.81510
Mg1317     Mg  0.41949686  0.51813536  0.08399758     1.57960
C1318       C  0.49323769  0.51522213  0.96535332     0.93880
O1319       O  0.38329437  0.52456072  0.07273421    -0.79770
H1320       H  0.42483855  0.50525669  0.98682267    -0.05110
C1321       C  0.50369347  0.51523367  0.04122075     0.88810
O1322       O  0.44440830  0.44711135  0.04482466    -0.74280
O1323       O  0.43346013  0.53513972  0.05622145    -0.87040
O1324       O  0.48220366  0.53015748  0.97583887    -0.79850
C1325       C  0.44039288  0.58101642  0.00821339     0.93990
C1326       C  0.37292144  0.53520571  0.05746145     0.93840
Mg1327     Mg  0.48908243  0.48155031  0.00644145     1.57950
O1328       O  0.52530962  0.47438873  0.01730430    -0.79780
O1329       O  0.45387363  0.48901418  0.99327001    -0.74020
O1330       O  0.42494370  0.57048575  0.01861090    -0.79860
O1331       O  0.40595405  0.50108262  0.11448847    -0.81570
O1332       O  0.48251825  0.42852464  0.07127789    -0.79890
C1333       C  0.44033365  0.50518726  0.99611874     0.88280
O1334       O  0.47502526  0.46474493  0.03454785    -0.87030
O1335       O  0.49005620  0.51149988  0.02602283    -0.87140
O1336       O  0.50702304  0.50130595  0.05708539    -0.74190
Mg1337     Mg  0.41511932  0.53341482  0.02568092     1.57970
O1338       O  0.45691728  0.57092358  0.99942646    -0.81570
H1339       H  0.39827620  0.46750458  0.04911127    -0.05290
O1340       O  0.46591239  0.48016615  0.08093845    -0.86840
H1341       H  0.48497237  0.49640193  0.10326560    -0.05120
H1342       H  0.46027861  0.44161902  0.01517067    -0.05290
C1343       C  0.46931991  0.49578459  0.09426560     0.88260
C1344       C  0.40663059  0.48361812  0.04936626     0.88840
C1345       C  0.46012892  0.45074281  0.03084672     0.88890
H1346       H  0.51265645  0.53101510  0.04129530    -0.05270
O1347       O  0.46493308  0.55215420  0.04767958    -0.74300
Mg1348     Mg  0.49402349  0.46555863  0.06454505     1.58000
H1349       H  0.44772320  0.55776849  0.07649001    -0.05290
C1350       C  0.41598378  0.48640112  0.12611159     0.93880
O1351       O  0.45400346  0.43097284  0.09481824    -0.81530
C1352       C  0.46780568  0.41921912  0.08374917     0.93940
O1353       O  0.38297222  0.54487140  0.04133165    -0.81510
Mg1354     Mg  0.47364159  0.53986702  0.01220247     1.58180
O1355       O  0.42870922  0.47199895  0.11683307    -0.79850
O1356       O  0.50193492  0.49846453  0.97520192    -0.81540
C1357       C  0.50125297  0.50981306  0.86981284     0.04350
C1358       C  0.52321873  0.50475751  0.86381743    -0.11800
C1359       C  0.52846619  0.49712425  0.84224378     0.01850
C1360       C  0.51139218  0.49595024  0.82603208    -0.10330
C1361       C  0.48918523  0.50186432  0.83145071     0.04340
C1362       C  0.48426429  0.50834771  0.85366896    -0.09750
H1363       H  0.53622711  0.50612777  0.87636847     0.09930
H1364       H  0.51543546  0.49042623  0.80922142     0.07460
H1365       H  0.46721106  0.51186563  0.85860104     0.07310
C1366       C  0.38049507  0.54535152  0.79058067     0.04350
C1367       C  0.38635030  0.56775626  0.79429418    -0.11800
C1368       C  0.40777240  0.57383891  0.80125662     0.01850
C1369       C  0.42444911  0.55726297  0.80228902    -0.10330
C1370       C  0.41944922  0.53463166  0.79705705     0.04340
C1371       C  0.39718099  0.52879665  0.79167452    -0.09750
H1372       H  0.37384010  0.58069628  0.79210494     0.09930
H1373       H  0.44125617  0.56203039  0.80699173     0.07460
H1374       H  0.39273784  0.51137659  0.78891780     0.07310
C1375       C  0.43733716  0.51712844  0.79730508     0.04350
C1376       C  0.43782259  0.50021848  0.78077796    -0.11800
C1377       C  0.45459742  0.48370282  0.78070297     0.01850
C1378       C  0.47107250  0.48423794  0.79749715    -0.10330
C1379       C  0.47118177  0.50109189  0.81406883     0.04340
C1380       C  0.45416054  0.51740572  0.81380730    -0.09750
H1381       H  0.42510667  0.49991349  0.76787856     0.09930
H1382       H  0.48391196  0.47147880  0.79757118     0.07460
H1383       H  0.45404597  0.53043616  0.82646470     0.07310
C1384       C  0.46021494  0.42671259  0.75228572     0.04350
C1385       C  0.45543501  0.43221166  0.73008575    -0.11800
C1386       C  0.45080357  0.45435249  0.72381477     0.01850
C1387       C  0.45052908  0.47118539  0.74041896    -0.10330
C1388       C  0.45498606  0.46588717  0.76308712     0.04340
C1389       C  0.45985262  0.44343468  0.76883680    -0.09750
H1390       H  0.45489575  0.41893134  0.71764113     0.09930
H1391       H  0.44733293  0.48842024  0.73562621     0.07460
H1392       H  0.46285637  0.43884096  0.78615515     0.07310
C1393       C  0.19950853  0.54498110  0.47217210     0.04350
C1394       C  0.20587251  0.56693418  0.47729498    -0.11800
C1395       C  0.21058928  0.57339171  0.49935557     0.01850
C1396       C  0.21010919  0.55709743  0.51644623    -0.10330
C1397       C  0.20470342  0.53455215  0.51151353     0.04340
C1398       C  0.19931565  0.52870353  0.48920779    -0.09750
H1399       H  0.20697185  0.57919633  0.46389149     0.09930
H1400       H  0.21326649  0.56209217  0.53362455     0.07460
H1401       H  0.19492682  0.51155138  0.48503778     0.07310
C1402       C  0.13055357  0.45481287  0.54045285     0.04350
C1403       C  0.14701207  0.47162499  0.54098977    -0.11800
C1404       C  0.16941780  0.46608901  0.54598594     0.01850
C1405       C  0.17478320  0.44351500  0.55088907    -0.10330
C1406       C  0.15823887  0.42672137  0.55028113     0.04340
C1407       C  0.13652045  0.43253308  0.54421221    -0.09750
H1408       H  0.14223249  0.48895708  0.53837268     0.09930
H1409       H  0.19175467  0.43899181  0.55514368     0.07460
H1410       H  0.12375260  0.41962342  0.54311879     0.07310
C1411       C  0.27772248  0.50405270  0.59228630     0.04350
C1412       C  0.26086484  0.50556666  0.57583632    -0.11800
C1413       C  0.23851367  0.49976635  0.58089206     0.01850
C1414       C  0.23320817  0.49321717  0.60300659    -0.10330
C1415       C  0.24991349  0.49148772  0.61940325     0.04340
C1416       C  0.27202863  0.49640153  0.61377026    -0.09750
H1417       H  0.26519932  0.51110419  0.55909777     0.09930
H1418       H  0.21606833  0.48959625  0.60761338     0.07460
H1419       H  0.28484247  0.49463855  0.62645893     0.07310
C1420       C  0.22076356  0.50027909  0.56321559     0.04350
C1421       C  0.22073369  0.51696654  0.54644958    -0.11800
C1422       C  0.20424770  0.51723024  0.52960719     0.01850
C1423       C  0.18744094  0.50067918  0.52988061    -0.10330
C1424       C  0.18708493  0.48382463  0.54636581     0.04340
C1425       C  0.20384816  0.48376364  0.56290004    -0.09750
H1426       H  0.23361970  0.52974642  0.54640955     0.09930
H1427       H  0.17462567  0.50080424  0.51708441     0.07460
H1428       H  0.20374983  0.47072503  0.57554806     0.07310
O1429       O  0.22703126  0.51898848  0.76554317    -0.87130
C1430       C  0.22650837  0.45441828  0.78608265     0.88900
Mg1431     Mg  0.23395918  0.54572705  0.78797588     1.58150
O1432       O  0.17391542  0.47752493  0.77654608    -0.86860
O1433       O  0.20008298  0.50833493  0.74290812    -0.74190
C1434       C  0.17481469  0.52064689  0.87851094     0.93950
O1435       O  0.25664627  0.49527443  0.80348604    -0.74000
O1436       O  0.19044528  0.53384818  0.87252926    -0.81510
Mg1437     Mg  0.25006299  0.49165079  0.76563146     1.57960
C1438       C  0.12195373  0.46938393  0.81861493     0.93880
O1439       O  0.24575141  0.48827527  0.72724407    -0.79770
H1440       H  0.15198896  0.49241790  0.75610930    -0.05110
C1441       C  0.19494754  0.47578276  0.84049612     0.88810
O1442       O  0.19622685  0.55211616  0.79213800    -0.74280
O1443       O  0.22281221  0.46990088  0.77270150    -0.87040
O1444       O  0.13564679  0.45850639  0.80638229    -0.79850
C1445       C  0.18121042  0.41797095  0.76501880     0.93990
C1446       C  0.23420767  0.47677969  0.71341049     0.93840
Mg1447     Mg  0.15817016  0.50714364  0.82607313     1.57950
O1448       O  0.16335418  0.50986348  0.86407495    -0.79780
O1449       O  0.15112015  0.50391782  0.78818490    -0.74020
O1450       O  0.19241316  0.43248715  0.75404450    -0.79860
O1451       O  0.28033418  0.51381915  0.76021985    -0.81570
O1452       O  0.21561269  0.56683162  0.83784646    -0.79890
C1453       C  0.15869021  0.49108776  0.77288641     0.88280
O1454       O  0.18512676  0.52921754  0.81889678    -0.87030
O1455       O  0.18121991  0.48002957  0.82555044    -0.87140
O1456       O  0.20834017  0.49060120  0.84803555    -0.74190
Mg1457     Mg  0.19581045  0.47048479  0.74947790     1.57970
O1458       O  0.16757261  0.42381130  0.78028376    -0.81570
H1459       H  0.21270862  0.53999827  0.74371542    -0.05290
O1460       O  0.23405160  0.52199165  0.81476101    -0.86840
H1461       H  0.25589975  0.50725004  0.83536930    -0.05120
H1462       H  0.16454655  0.55122258  0.80431395    -0.05290
C1463       C  0.24922206  0.50841788  0.81856711     0.88260
C1464       C  0.21353566  0.52313269  0.75036226     0.88840
C1465       C  0.18127840  0.54452713  0.80535877     0.88890
H1466       H  0.19600839  0.45882888  0.84687440    -0.05270
O1467       O  0.21141314  0.44671953  0.79906939    -0.74300
Mg1468     Mg  0.21231685  0.52861480  0.84201670     1.58000
H1469       H  0.24319231  0.44760918  0.78714204    -0.05290
C1470       C  0.28632903  0.52968270  0.77319646     0.93880
O1471       O  0.23955998  0.57577225  0.81078188    -0.81530
C1472       C  0.22651070  0.58146229  0.82665902     0.93940
O1473       O  0.21802710  0.46441399  0.71957417    -0.81510
Mg1474     Mg  0.17371376  0.45353117  0.80307906     1.58180
O1475       O  0.27198980  0.54102471  0.78426755    -0.79850
O1476       O  0.12833529  0.48448196  0.83225255    -0.81540
C1477       C  0.12946120  0.75207241  0.34047261     0.04350
C1478       C  0.13483467  0.74462583  0.36205134    -0.11800
C1479       C  0.15701943  0.74106403  0.36853133     0.01850
C1480       C  0.17394556  0.74240134  0.35212833    -0.10330
C1481       C  0.16877235  0.74788270  0.32968267     0.04340
C1482       C  0.14650919  0.75336990  0.32423428    -0.09750
H1483       H  0.12156727  0.74206318  0.37416624     0.09930
H1484       H  0.19118756  0.73984493  0.35690020     0.07460
H1485       H  0.14243382  0.75860128  0.30735204     0.07310
C1486       C  0.21990569  0.73143963  0.29485807     0.04350
C1487       C  0.21962950  0.74831092  0.27828475    -0.11800
C1488       C  0.20327148  0.76522507  0.27848831     0.01850
C1489       C  0.18684531  0.76495391  0.29541121    -0.10330
C1490       C  0.18656195  0.74815854  0.31202250     0.04340
C1491       C  0.20322063  0.73149430  0.31157037    -0.09750
H1492       H  0.23239359  0.74850593  0.26538796     0.09930
H1493       H  0.17430311  0.77801366  0.29571133     0.07460
H1494       H  0.20328214  0.71857803  0.32436064     0.07310
C1495       C  0.20854769  0.79709581  0.22298599     0.04350
C1496       C  0.20790136  0.77934453  0.23863592    -0.11800
C1497       C  0.20382343  0.78374705  0.26164093     0.01850
C1498       C  0.20015851  0.80610884  0.26859575    -0.10330
C1499       C  0.20119150  0.82367830  0.25304744     0.04340
C1500       C  0.20597903  0.81912029  0.23066889    -0.09750
H1501       H  0.20981194  0.76220661  0.23287628     0.09930
H1502       H  0.19704529  0.80994852  0.28608825     0.07460
H1503       H  0.20724769  0.83301891  0.21896277     0.07310
C1504       C  0.27768074  0.70487117  0.29279372     0.04350
C1505       C  0.26040152  0.72062144  0.29098939    -0.11800
C1506       C  0.23807585  0.71428611  0.29528490     0.01850
C1507       C  0.23333728  0.69159810  0.30044705    -0.10330
C1508       C  0.25063980  0.67564915  0.30204329     0.04340
C1509       C  0.27272790  0.68276268  0.29882598    -0.09750
H1510       H  0.26449473  0.73788625  0.28695810     0.09930
H1511       H  0.21617215  0.68630227  0.30273438     0.07460
H1512       H  0.28631372  0.67092529  0.30073727     0.07310
O1513       O  0.23339774  0.47867262  0.27474122    -0.87130
C1514       C  0.21386214  0.54345905  0.27406123     0.88900
Mg1515     Mg  0.21059137  0.45227282  0.26718925     1.58150
O1516       O  0.22222602  0.52126096  0.32748040    -0.86860
O1517       O  0.25522243  0.48944377  0.30237824    -0.74190
C1518       C  0.12071366  0.47741791  0.32657043     0.93950
O1519       O  0.19656888  0.50263262  0.24430026    -0.74000
O1520       O  0.12655691  0.46433289  0.31076104    -0.81510
Mg1521     Mg  0.23435790  0.50582024  0.25131873     1.57960
C1522       C  0.18038810  0.52932875  0.37895337     0.93880
O1523       O  0.27259143  0.50891939  0.25638270    -0.79770
H1524       H  0.24240940  0.50649528  0.34972449    -0.05110
C1525       C  0.15864015  0.52239131  0.30580562     0.88810
O1526       O  0.20613904  0.44541730  0.30501707    -0.74280
O1527       O  0.22721906  0.52814620  0.27823261    -0.87040
O1528       O  0.19186154  0.54083733  0.36504069    -0.79850
C1529       C  0.23478811  0.58077660  0.31989333     0.93990
C1530       C  0.28638081  0.51985848  0.26852672     0.93840
Mg1531     Mg  0.17312827  0.49104850  0.34288348     1.57950
O1532       O  0.13519194  0.48821757  0.33795649    -0.79780
O1533       O  0.21068378  0.49441939  0.34998112    -0.74020
O1534       O  0.24601711  0.56608974  0.30913855    -0.79860
O1535       O  0.24006015  0.48306633  0.22121757    -0.81570
O1536       O  0.16109980  0.43100474  0.28589361    -0.79890
C1537       C  0.22577836  0.50765859  0.34278331     0.88280
O1538       O  0.18006283  0.46892469  0.31596529    -0.87030
O1539       O  0.17355631  0.51827740  0.31959417    -0.87140
O1540       O  0.15108898  0.50746949  0.29250909    -0.74190
Mg1541     Mg  0.24960834  0.52754890  0.30605263     1.57970
O1542       O  0.21849862  0.57506217  0.33239244    -0.81570
H1543       H  0.25415851  0.45756112  0.29034050    -0.05290
O1544       O  0.18438588  0.47626683  0.26706854    -0.86840
H1545       H  0.16447758  0.49150480  0.24487883    -0.05120
H1546       H  0.19383480  0.44653635  0.33677273    -0.05290
C1547       C  0.18109591  0.48994555  0.25176263     0.88260
C1548       C  0.24793766  0.47452538  0.28892036     0.88840
C1549       C  0.19311313  0.45330601  0.31996298     0.88890
H1550       H  0.15229186  0.53932389  0.30460140    -0.05270
O1551       O  0.20053048  0.55116653  0.28883058    -0.74300
Mg1552     Mg  0.15703328  0.46945885  0.28877809     1.58000
H1553       H  0.21306776  0.55004348  0.25717884    -0.05290
C1554       C  0.22604813  0.46820126  0.21506377     0.93880
O1555       O  0.18721553  0.42302297  0.26050898    -0.81530
C1556       C  0.17187701  0.41693357  0.27396589     0.93940
O1557       O  0.28018298  0.53218481  0.28475374    -0.81510
Mg1558     Mg  0.19581556  0.54510149  0.32674142     1.58180
O1559       O  0.21424959  0.45737862  0.22922808    -0.79850
O1560       O  0.16756272  0.51344891  0.37284090    -0.81540
O1561       O  0.92348100  0.76872989  0.27348213    -0.87130
C1562       C  0.94389275  0.70433765  0.27412226     0.88900
Mg1563     Mg  0.94551354  0.79549238  0.26582633     1.58150
O1564       O  0.93518334  0.72766906  0.32707791    -0.86860
O1565       O  0.90144886  0.75846591  0.30116971    -0.74190
C1566       C  0.03656479  0.77227656  0.32417163     0.93950
O1567       O  0.96076703  0.74473906  0.24307389    -0.74000
O1568       O  0.03048877  0.78394765  0.30741135    -0.81510
Mg1569     Mg  0.92326344  0.74111980  0.25048782     1.57960
C1570       C  0.97774428  0.72068538  0.37864911     0.93880
O1571       O  0.88543700  0.73760207  0.25561688    -0.79770
H1572       H  0.91508263  0.74309650  0.34901102    -0.05110
C1573       C  0.99874707  0.72634451  0.30495586     0.88810
O1574       O  0.95042378  0.80255652  0.30344153    -0.74280
O1575       O  0.93046591  0.71967639  0.27796695    -0.87040
O1576       O  0.96647319  0.70871017  0.36497525    -0.79850
C1577       C  0.92322322  0.66808764  0.32058941     0.93990
C1578       C  0.87107046  0.72707104  0.26744285     0.93840
Mg1579     Mg  0.98446154  0.75861313  0.34164619     1.57950
O1580       O  0.02264602  0.76191919  0.33669801    -0.79780
O1581       O  0.94684582  0.75508502  0.34881823    -0.74020
O1582       O  0.91194434  0.68257561  0.30970643    -0.79860
O1583       O  0.91744389  0.76295756  0.21976898    -0.81570
O1584       O  0.99578571  0.81694185  0.28212590    -0.79890
C1585       C  0.93169627  0.74170393  0.34202143     0.88280
O1586       O  0.97736517  0.77998841  0.31417607    -0.87030
O1587       O  0.98414445  0.73071924  0.31904501    -0.87140
O1588       O  0.00572910  0.74087467  0.29093013    -0.74190
Mg1589     Mg  0.90770871  0.72065449  0.30564494     1.57970
O1590       O  0.93943974  0.67396395  0.33306419    -0.81570
H1591       H  0.90213524  0.78995744  0.28816166    -0.05290
O1592       O  0.97220313  0.77182917  0.26526469    -0.86840
H1593       H  0.99241962  0.75700901  0.24302221    -0.05120
H1594       H  0.96341837  0.80239783  0.33487151    -0.05290
C1595       C  0.97580701  0.75811973  0.25006306     0.88260
C1596       C  0.90864658  0.77306271  0.28732972     0.88840
C1597       C  0.96401959  0.79536371  0.31815714     0.88890
H1598       H  0.00521176  0.70943273  0.30405139    -0.05270
O1599       O  0.95724420  0.69706202  0.28903273    -0.74300
Mg1600     Mg  0.99974111  0.77871300  0.28629341     1.58000
H1601       H  0.94473703  0.69735692  0.25739743    -0.05290
C1602       C  0.93016543  0.77901389  0.21371728     0.93880
O1603       O  0.96788623  0.82542374  0.25921025    -0.81530
C1604       C  0.98432722  0.83136977  0.27132352     0.93940
O1605       O  0.87699011  0.71500755  0.28401489    -0.81510
Mg1606     Mg  0.96196331  0.70395484  0.32676947     1.58180
O1607       O  0.94114936  0.79047247  0.22801638    -0.79850
O1608       O  0.98985947  0.73705076  0.37225803    -0.81540
O1609       O  0.68539652  0.52996026  0.31844824    -0.87130
C1610       C  0.74915037  0.50870924  0.31866803     0.88900
Mg1611     Mg  0.65813174  0.50819521  0.32529401     1.58150
O1612       O  0.72739387  0.51950475  0.26553164    -0.86860
O1613       O  0.69677299  0.55295487  0.29190533    -0.74190
C1614       C  0.68024694  0.41850185  0.26416922     0.93950
O1615       O  0.70805648  0.49134302  0.34785920    -0.74000
O1616       O  0.66688876  0.42463901  0.27956571    -0.81510
Mg1617     Mg  0.71227016  0.52935064  0.34185825     1.57960
C1618       C  0.73418638  0.47770853  0.21310910     0.93880
O1619       O  0.71577854  0.56758245  0.33767902    -0.79770
H1620       H  0.71281100  0.54056380  0.24393281    -0.05110
C1621       C  0.72629055  0.45456478  0.28565487     0.88810
O1622       O  0.65151098  0.50488051  0.28741158    -0.74280
O1623       O  0.73431919  0.52265735  0.31483203    -0.87040
O1624       O  0.74607317  0.48854240  0.22719875    -0.79850
C1625       C  0.78645948  0.52976885  0.27328389     0.93990
C1626       C  0.72682922  0.58220183  0.32661671     0.93840
Mg1627     Mg  0.69575593  0.47095083  0.24916562     1.57950
O1628       O  0.69224775  0.43252880  0.25334658    -0.79780
O1629       O  0.70022158  0.50889046  0.24307660    -0.74020
O1630       O  0.77264805  0.54169769  0.28439227    -0.79860
O1631       O  0.69000425  0.53472591  0.37209264    -0.81570
O1632       O  0.63593420  0.45916819  0.30656230    -0.79890
C1633       C  0.71373794  0.52366621  0.25048816     0.88280
O1634       O  0.67385851  0.47793141  0.27617649    -0.87030
O1635       O  0.72266929  0.47016373  0.27240461    -0.87140
O1636       O  0.71118175  0.44692890  0.29864241    -0.74190
Mg1637     Mg  0.73448631  0.54638718  0.28796979     1.57970
O1638       O  0.78033419  0.51359585  0.26079792    -0.81570
H1639       H  0.66501417  0.55215242  0.30387031    -0.05290
O1640       O  0.68106853  0.48070440  0.32521890    -0.86840
H1641       H  0.69571750  0.45957324  0.34670600    -0.05120
H1642       H  0.65226861  0.49296849  0.25549961    -0.05290
C1643       C  0.69470403  0.47650736  0.34026767     0.88260
C1644       C  0.68170573  0.54536681  0.30498114     0.88840
C1645       C  0.65885794  0.49168928  0.27232764     0.88890
H1646       H  0.74292000  0.44760247  0.28660436    -0.05270
O1647       O  0.75627760  0.49534140  0.30363217    -0.74300
Mg1648     Mg  0.67360100  0.45408974  0.30275612     1.58000
H1649       H  0.75573566  0.50736844  0.33549558    -0.05290
C1650       C  0.67410629  0.52180131  0.37798151     0.93880
O1651       O  0.62762709  0.48624767  0.33067479    -0.81530
C1652       C  0.62162594  0.47041285  0.31767608     0.93940
O1653       O  0.74000372  0.57651668  0.31082660    -0.81510
Mg1654     Mg  0.75001910  0.49178481  0.26571791     1.58180
O1655       O  0.66270827  0.51099602  0.36348904    -0.79850
O1656       O  0.71774222  0.46556875  0.21905427    -0.81540
C1657       C  0.77694199  0.74333778  0.25037424     0.04350
C1658       C  0.77070484  0.74701564  0.22805775    -0.11800
C1659       C  0.74919593  0.75417143  0.22249689     0.01850
C1660       C  0.73295367  0.75555633  0.23952342    -0.10330
C1661       C  0.73827965  0.75028742  0.26196561     0.04340
C1662       C  0.76057097  0.74471959  0.26728874    -0.09750
H1663       H  0.78291927  0.74461081  0.21484657     0.09930
H1664       H  0.71613923  0.76057275  0.23524575     0.07460
H1665       H  0.76528129  0.74203111  0.28461131     0.07310
C1666       C  0.72058879  0.75046110  0.27971532     0.04350
C1667       C  0.72034169  0.73385792  0.29652467    -0.11800
C1668       C  0.70354488  0.73340010  0.31305025     0.01850
C1669       C  0.68676466  0.74994078  0.31260938    -0.10330
C1670       C  0.68657905  0.76677030  0.29600845     0.04340
C1671       C  0.70360623  0.76680823  0.27964373    -0.09750
H1672       H  0.73324093  0.72114985  0.29669772     0.09930
H1673       H  0.67381286  0.74974114  0.32530450     0.07460
H1674       H  0.70363963  0.77961196  0.26676826     0.07310
C1675       C  0.65799160  0.82393355  0.29131299     0.04350
C1676       C  0.67424818  0.80692283  0.29039723    -0.11800
C1677       C  0.66888878  0.78452273  0.29608662     0.01850
C1678       C  0.64655201  0.77925333  0.30179885    -0.10330
C1679       C  0.63016449  0.79614959  0.30262025     0.04340
C1680       C  0.63638758  0.81840039  0.29835781    -0.09750
H1681       H  0.69110238  0.81118553  0.28537690     0.09930
H1682       H  0.64178210  0.76199113  0.30497621     0.07460
H1683       H  0.62407096  0.83156524  0.30027602     0.07310
C1684       C  0.69700892  0.70423974  0.36960726     0.04350
C1685       C  0.70209066  0.68210711  0.36396015    -0.11800
C1686       C  0.70800247  0.67633823  0.34199596     0.01850
C1687       C  0.70876227  0.69313255  0.32540451    -0.10330
C1688       C  0.70347002  0.71563093  0.33074236     0.04340
C1689       C  0.69784695  0.72101745  0.35309929    -0.09750
H1690       H  0.70175659  0.66929896  0.37689613     0.09930
H1691       H  0.71278963  0.68851649  0.30829419     0.07460
H1692       H  0.69422715  0.73821552  0.35775071     0.07310
O1693       O  0.47526755  0.28519621  0.80645967    -0.87130
C1694       C  0.46836603  0.25500606  0.74618936     0.88900
Mg1695     Mg  0.48950193  0.26848458  0.83433197     1.58150
O1696       O  0.41894236  0.26133265  0.77639246    -0.86860
O1697       O  0.44394021  0.30214466  0.79760645    -0.74190
C1698       C  0.44105666  0.16873339  0.83351127     0.93950
O1699       O  0.50581889  0.24784213  0.78339492    -0.74000
O1700       O  0.45682640  0.17894116  0.84352669    -0.81510
Mg1701     Mg  0.49367568  0.28376383  0.77584765     1.57960
C1702       C  0.37362693  0.21259180  0.78401177     0.93880
O1703       O  0.48333527  0.32073745  0.76888269    -0.79770
H1704       H  0.39684631  0.28092375  0.79221518    -0.05110
C1705       C  0.44938437  0.20111539  0.78077921     0.88810
O1706       O  0.45416415  0.26104612  0.84790987    -0.74280
O1707       O  0.46497385  0.27011192  0.76009138    -0.87040
O1708       O  0.38306901  0.22442407  0.76888127    -0.79850
C1709       C  0.41524912  0.26443990  0.71574936     0.93990
C1710       C  0.46794865  0.33097501  0.75822732     0.93840
Mg1711     Mg  0.41574615  0.21557863  0.81510557     1.57950
O1712       O  0.42654947  0.17906625  0.82187178    -0.79780
O1713       O  0.40275757  0.25129092  0.80796181    -0.74020
O1714       O  0.42707905  0.27906134  0.72585415    -0.79860
O1715       O  0.52572687  0.29584408  0.79142631    -0.81570
O1716       O  0.48139978  0.22149215  0.86708870    -0.79890
C1717       C  0.40572032  0.26514154  0.79194904     0.88280
O1718       O  0.44388773  0.22966896  0.83148296    -0.87030
O1719       O  0.43430721  0.21478631  0.78480845    -0.87140
O1720       O  0.46529123  0.19757192  0.79451491    -0.74190
Mg1721     Mg  0.43533411  0.28948990  0.76216506     1.57970
O1722       O  0.40569864  0.24836819  0.72603944    -0.81570
H1723       H  0.46083360  0.30783536  0.82656758    -0.05290
O1724       O  0.49005409  0.23833454  0.81541257    -0.86840
H1725       H  0.51161138  0.21832211  0.79937549    -0.05120
H1726       H  0.42475178  0.24518304  0.85422891    -0.05290
C1727       C  0.50297052  0.23423688  0.79965172     0.88260
C1728       C  0.46030903  0.29888054  0.81079544     0.88840
C1729       C  0.44031792  0.24505054  0.84501444     0.88890
H1730       H  0.44926433  0.19224287  0.76495814    -0.05270
O1731       O  0.45453045  0.23902148  0.74315799    -0.74300
Mg1732     Mg  0.47356200  0.21030821  0.83023181     1.58000
H1733       H  0.48381343  0.25508194  0.73677316    -0.05290
C1734       C  0.53583698  0.28675494  0.80779675     0.93880
O1735       O  0.50319898  0.25152986  0.86479684    -0.81530
C1736       C  0.49355636  0.23647987  0.87641167     0.93940
O1737       O  0.45192251  0.32051760  0.74893060    -0.81510
Mg1738     Mg  0.41935982  0.23141368  0.75696252     1.58180
O1739       O  0.52558075  0.27591823  0.82308785    -0.79850
O1740       O  0.38492368  0.20216739  0.79867754    -0.81540
C1741       C  0.71035928  0.17627834  0.84251455     0.04350
C1742       C  0.71048531  0.19306988  0.82585439    -0.11800
C1743       C  0.70434568  0.21538912  0.83096875     0.01850
C1744       C  0.69827583  0.22065708  0.85327897    -0.10330
C1745       C  0.69824916  0.20399616  0.86994838     0.04340
C1746       C  0.70393077  0.18196870  0.86436455    -0.09750
H1747       H  0.71526612  0.18868345  0.80889501     0.09930
H1748       H  0.69425592  0.23776709  0.85790069     0.07460
H1749       H  0.70328615  0.16915839  0.87727247     0.07310
C1750       C  0.68773622  0.26672703  0.79635731     0.04350
C1751       C  0.68784619  0.24984074  0.81287564    -0.11800
C1752       C  0.70443909  0.23314002  0.81315162     0.01850
C1753       C  0.72102307  0.23345584  0.79632243    -0.10330
C1754       C  0.72129711  0.25016065  0.77953653     0.04340
C1755       C  0.70458326  0.26676968  0.77985745    -0.09750
H1756       H  0.67491076  0.24971485  0.82558785     0.09930
H1757       H  0.73379543  0.22064174  0.79630378     0.07460
H1758       H  0.70463203  0.27980676  0.76720117     0.07310
C1759       C  0.77794731  0.24427988  0.75037220     0.04350
C1760       C  0.76117841  0.24415402  0.76694421    -0.11800
C1761       C  0.73904451  0.25032245  0.76176126     0.01850
C1762       C  0.73401491  0.25664916  0.73949534    -0.10330
C1763       C  0.75070160  0.25695514  0.72280692     0.04340
C1764       C  0.77250597  0.25078071  0.72848796    -0.09750
H1765       H  0.76548102  0.23938761  0.78391812     0.09930
H1766       H  0.71709724  0.26117881  0.73503224     0.07460
H1767       H  0.78538388  0.25097327  0.71569883     0.07310
C1768       C  0.65842811  0.32344795  0.79172994     0.04350
C1769       C  0.63636153  0.31707572  0.79604545    -0.11800
C1770       C  0.63082914  0.29488107  0.80103216     0.01850
C1771       C  0.64752803  0.27839038  0.80088731    -0.10330
C1772       C  0.66994107  0.28424693  0.79630337     0.04340
C1773       C  0.67522766  0.30694871  0.79179588    -0.09750
H1774       H  0.62317954  0.32950467  0.79524918     0.09930
H1775       H  0.64299786  0.26107490  0.80416395     0.07460
H1776       H  0.69241356  0.31186455  0.78887343     0.07310
C1777       C  0.25083309  0.07258453  0.53903294     0.04350
C1778       C  0.27303382  0.06687022  0.54306262    -0.11800
C1779       C  0.27905653  0.04502824  0.54897475     0.01850
C1780       C  0.26255671  0.02813684  0.54909401    -0.10330
C1781       C  0.24010484  0.03328441  0.54387754     0.04340
C1782       C  0.23437931  0.05578244  0.53906660    -0.09750
H1783       H  0.28567419  0.07993262  0.54237904     0.09930
H1784       H  0.26717388  0.01109577  0.55333368     0.07460
H1785       H  0.21710717  0.06039986  0.53635450     0.07310
C1786       C  0.18848935  0.99889560  0.52843713     0.04350
C1787       C  0.20549880  0.01523039  0.52796770    -0.11800
C1788       C  0.22253016  0.01544629  0.54423886     0.01850
C1789       C  0.22243766  0.99884408  0.56107739    -0.10330
C1790       C  0.20572106  0.98219352  0.56176651     0.04340
C1791       C  0.18887943  0.98236827  0.54532157    -0.09750
H1792       H  0.20529924  0.02802191  0.51505270     0.09930
H1793       H  0.23533123  0.99894882  0.57379427     0.07460
H1794       H  0.17584180  0.96973795  0.54584414     0.07310
C1795       C  0.20930228  0.95462541  0.61942764     0.04350
C1796       C  0.20400084  0.93242691  0.61403809    -0.11800
C1797       C  0.19978786  0.92595816  0.59190931     0.01850
C1798       C  0.20033449  0.94226642  0.57485672    -0.10330
C1799       C  0.20553384  0.96486645  0.57987118     0.04340
C1800       C  0.21026732  0.97082987  0.60231320    -0.09750
H1801       H  0.20324007  0.91997476  0.62729577     0.09930
H1802       H  0.19728345  0.93724800  0.55766036     0.07460
H1803       H  0.21397722  0.98811544  0.60660840     0.07310
C1804       C  0.12985438  0.99785171  0.50399475     0.04350
C1805       C  0.13409090  0.00378853  0.48179896    -0.11800
C1806       C  0.15595219  0.00604713  0.47374515     0.01850
C1807       C  0.17383031  0.00450166  0.48902414    -0.10330
C1808       C  0.16977733  0.99975687  0.51194534     0.04340
C1809       C  0.14761930  0.99586933  0.51911508    -0.09750
H1810       H  0.12010856  0.00564424  0.47040977     0.09930
H1811       H  0.19082633  0.00618419  0.48300828     0.07460
H1812       H  0.14406570  0.99182295  0.53647707     0.07310
C1813       C  0.77799313  0.54687325  0.55310243     0.04350
C1814       C  0.77104235  0.56912819  0.55075661    -0.11800
C1815       C  0.74960985  0.57436760  0.54322314     0.01850
C1816       C  0.73379571  0.55692337  0.54129780    -0.10330
C1817       C  0.73966062  0.53447281  0.54620200     0.04340
C1818       C  0.76212334  0.52952612  0.55149207    -0.09750
H1819       H  0.78306849  0.58248540  0.55347317     0.09930
H1820       H  0.71697859  0.56078404  0.53597828     0.07460
H1821       H  0.76738115  0.51225140  0.55347200     0.07310
C1822       C  0.69913374  0.42654255  0.59249041     0.04350
C1823       C  0.70280952  0.43307093  0.61471323    -0.11800
C1824       C  0.70815553  0.45523430  0.62021481     0.01850
C1825       C  0.70935937  0.47144267  0.60313845    -0.10330
C1826       C  0.70503958  0.46548779  0.58062892     0.04340
C1827       C  0.70008561  0.44287402  0.57546034    -0.09750
H1828       H  0.70170980  0.42066204  0.62797536     0.09930
H1829       H  0.71300696  0.48872614  0.60749464     0.07460
H1830       H  0.69751297  0.43790552  0.55817324     0.07310
C1831       C  0.70545615  0.48286186  0.56261235     0.04350
C1832       C  0.72216447  0.49952740  0.56225708    -0.11800
C1833       C  0.72242209  0.51629142  0.54560599     0.01850
C1834       C  0.70569084  0.51605227  0.52900316    -0.10330
C1835       C  0.68874166  0.49961238  0.52909124     0.04340
C1836       C  0.68882591  0.48309524  0.54595905    -0.09750
H1837       H  0.73489426  0.49958754  0.57514775     0.09930
H1838       H  0.70571283  0.52881320  0.51606406     0.07460
H1839       H  0.67581740  0.47041994  0.54618567     0.07310
C1840       C  0.65947578  0.50376579  0.47248091     0.04350
C1841       C  0.67622386  0.50381110  0.48897667    -0.11800
C1842       C  0.67085786  0.49977657  0.51168138     0.01850
C1843       C  0.64832667  0.49591011  0.51765066    -0.10330
C1844       C  0.63145349  0.49607851  0.50123837     0.04340
C1845       C  0.63732761  0.49985583  0.47883401    -0.09750
H1846       H  0.69345618  0.50642303  0.48404958     0.09930
H1847       H  0.64385844  0.49334310  0.53508019     0.07460
H1848       H  0.62442636  0.49981865  0.46610405     0.07310
O1849       O  0.67378541  0.27237839  0.56587876    -0.87130
C1850       C  0.69405423  0.27350392  0.50148741     0.88900
Mg1851     Mg  0.69571987  0.27936096  0.59281455     1.58150
O1852       O  0.68506168  0.22027369  0.52392899    -0.86860
O1853       O  0.65122442  0.24535480  0.55508679    -0.74190
C1854       C  0.78690972  0.22125615  0.56844136     0.93950
O1855       O  0.71124411  0.30301870  0.54274346    -0.74000
O1856       O  0.78082454  0.23772245  0.58056585    -0.81510
Mg1857     Mg  0.67362205  0.29607728  0.53898679     1.57960
C1858       C  0.72657794  0.16840143  0.51592279     0.93880
O1859       O  0.63568129  0.29128593  0.53557277    -0.79770
H1860       H  0.66495874  0.19807932  0.53911090    -0.05110
C1861       C  0.74896113  0.24202673  0.52309856     0.88810
O1862       O  0.70040823  0.24152610  0.59896810    -0.74280
O1863       O  0.68058936  0.26928958  0.51674982    -0.87040
O1864       O  0.71539351  0.18283076  0.50486916    -0.79850
C1865       C  0.67332250  0.22793568  0.46443485     0.93990
C1866       C  0.62121922  0.27985910  0.52476940     0.93840
Mg1867     Mg  0.73467535  0.20438093  0.55412695     1.57950
O1868       O  0.77299709  0.20911272  0.55761697    -0.79780
O1869       O  0.69688239  0.19765980  0.55054010    -0.74020
O1870       O  0.66195592  0.23864893  0.47901806    -0.79860
O1871       O  0.66791663  0.32607993  0.56156090    -0.81570
O1872       O  0.74644983  0.26255583  0.61464773    -0.79890
C1873       C  0.68161235  0.20499639  0.53764239     0.88280
O1874       O  0.72774073  0.23118846  0.57656994    -0.87030
O1875       O  0.73416962  0.22800089  0.52713154    -0.87140
O1876       O  0.75621126  0.25545362  0.53803645    -0.74190
Mg1877     Mg  0.65762170  0.24176930  0.51721790     1.57970
O1878       O  0.68937233  0.21521479  0.47016886    -0.81570
H1879       H  0.65217778  0.25759233  0.58686016    -0.05290
O1880       O  0.72269494  0.28040985  0.56948076    -0.86840
H1881       H  0.74295475  0.30273708  0.55471937    -0.05120
H1882       H  0.71329317  0.21004238  0.59829289    -0.05290
C1883       C  0.72630274  0.29575982  0.55590161     0.88260
C1884       C  0.65870091  0.25869660  0.56997235     0.88840
C1885       C  0.71409548  0.22692093  0.59165389     0.88890
H1886       H  0.75541593  0.24336712  0.50619915    -0.05270
O1887       O  0.70751020  0.25879687  0.49394117    -0.74300
Mg1888     Mg  0.75021485  0.25913547  0.57601955     1.58000
H1889       H  0.69486814  0.29038264  0.49485549    -0.05290
C1890       C  0.68075234  0.33197388  0.57749778     0.93880
O1891       O  0.71781917  0.28503689  0.62286735    -0.81530
C1892       C  0.73450870  0.27331477  0.62875864     0.93940
O1893       O  0.62703510  0.26366573  0.51211687    -0.81510
Mg1894     Mg  0.71186221  0.22093673  0.50028638     1.58180
O1895       O  0.69175671  0.31748134  0.58864705    -0.79850
O1896       O  0.74006494  0.17432082  0.53132779    -0.81540
O1897       O  0.98404654  0.27214105  0.27662708    -0.87130
C1898       C  0.96357667  0.27333078  0.34106119     0.88900
Mg1899     Mg  0.96209730  0.27922894  0.24955966     1.58150
O1900       O  0.97322921  0.21993579  0.31929857    -0.86860
O1901       O  0.00664761  0.24546027  0.28801663    -0.74190
C1902       C  0.87209903  0.21920410  0.27331938     0.93950
O1903       O  0.94644797  0.30227505  0.29977250    -0.74000
O1904       O  0.87823728  0.23479084  0.26007524    -0.81510
Mg1905     Mg  0.98421998  0.29578680  0.30353333     1.57960
C1906       C  0.93157030  0.16776669  0.32698570     0.93880
O1907       O  0.02227768  0.29103227  0.30655923    -0.79770
H1908       H  0.99370754  0.19787012  0.30459667    -0.05110
C1909       C  0.90884114  0.24077714  0.31885447     0.88810
O1910       O  0.95802895  0.24127413  0.24305984    -0.74280
O1911       O  0.97728822  0.26910245  0.32605401    -0.87040
O1912       O  0.94248275  0.18236943  0.33819282    -0.79850
C1913       C  0.98421237  0.22769529  0.37863205     0.93990
C1914       C  0.03659156  0.27988705  0.31778317     0.93840
Mg1915     Mg  0.92432265  0.20352210  0.28837132     1.57950
O1916       O  0.88621619  0.20807407  0.28482465    -0.79780
O1917       O  0.96203251  0.19713037  0.29251390    -0.74020
O1918       O  0.99626786  0.23841407  0.36454993    -0.79860
O1919       O  0.98991722  0.32583501  0.28096947    -0.81570
O1920       O  0.91304508  0.26032070  0.22768010    -0.79890
C1921       C  0.97700192  0.20463113  0.30571420     0.88280
O1922       O  0.93141240  0.23030314  0.26601193    -0.87030
O1923       O  0.92414279  0.22732031  0.31506531    -0.87140
O1924       O  0.90132183  0.25380211  0.30373386    -0.74190
Mg1925     Mg  0.00042529  0.24187935  0.32605610     1.57970
O1926       O  0.96760660  0.21577082  0.37268418    -0.81570
H1927       H  0.00565981  0.25700119  0.25597675    -0.05290
O1928       O  0.93513778  0.27954179  0.27297915    -0.86840
H1929       H  0.91466794  0.30144611  0.28794614    -0.05120
H1930       H  0.94590427  0.20941168  0.24412563    -0.05290
C1931       C  0.93139046  0.29475771  0.28667269     0.88260
C1932       C  0.99910844  0.25841197  0.27282779     0.88840
C1933       C  0.94488836  0.22628158  0.25073714     0.88890
H1934       H  0.90209427  0.24191380  0.33564885    -0.05270
O1935       O  0.94995633  0.25861791  0.34840045    -0.74300
Mg1936     Mg  0.90819225  0.25736041  0.26587724     1.58000
H1937       H  0.96264417  0.29024672  0.34758019    -0.05290
C1938       C  0.97697640  0.33185563  0.26520250     0.93880
O1939       O  0.93966451  0.28511839  0.21944374    -0.81530
C1940       C  0.92415773  0.27178389  0.21343934     0.93940
O1941       O  0.03068195  0.26435565  0.33122408    -0.81510
Mg1942     Mg  0.94585322  0.22071130  0.34229182     1.58180
O1943       O  0.96577636  0.31742193  0.25408123    -0.79850
O1944       O  0.91861840  0.17354025  0.31111524    -0.81540
C1945       C  0.95854770  0.32209501  0.59379237     0.04350
C1946       C  0.95910513  0.30585634  0.57664002    -0.11800
C1947       C  0.95477699  0.28300398  0.58156743     0.01850
C1948       C  0.94998585  0.27680173  0.60392175    -0.10330
C1949       C  0.94973342  0.29301209  0.62094468     0.04340
C1950       C  0.95437555  0.31533847  0.61586304    -0.09750
H1951       H  0.96196058  0.31112578  0.55947800     0.09930
H1952       H  0.94667061  0.25942245  0.60817085     0.07460
H1953       H  0.95414083  0.32772219  0.62921965     0.07310
C1954       C  0.93791696  0.23234789  0.54609818     0.04350
C1955       C  0.93820408  0.24883127  0.56303518    -0.11800
C1956       C  0.95471994  0.26569408  0.56346372     0.01850
C1957       C  0.97120491  0.26590258  0.54664886    -0.10330
C1958       C  0.97154575  0.24947634  0.52964564     0.04340
C1959       C  0.95479768  0.23277677  0.52957021    -0.09750
H1960       H  0.92547422  0.24861001  0.57594772     0.09930
H1961       H  0.98384246  0.27894278  0.54683258     0.07460
H1962       H  0.95480484  0.22012947  0.51652826     0.07310
C1963       C  0.00055963  0.24634317  0.47240132     0.04350
C1964       C  0.98415365  0.24474021  0.48935380    -0.11800
C1965       C  0.98921487  0.25014579  0.51186454     0.01850
C1966       C  0.01134757  0.25621386  0.51731087    -0.10330
C1967       C  0.02765675  0.25802389  0.50049511     0.04340
C1968       C  0.02199877  0.25379720  0.47819275    -0.09750
H1969       H  0.96746083  0.23930445  0.48501400     0.09930
H1970       H  0.01606194  0.25908308  0.53461784     0.07460
H1971       H  0.03474334  0.25562692  0.46538796     0.07310
C1972       C  0.90742874  0.17658956  0.53742331     0.04350
C1973       C  0.88535458  0.18314508  0.54133107    -0.11800
C1974       C  0.88020466  0.20460240  0.54936004     0.01850
C1975       C  0.89754642  0.22057236  0.55112643    -0.10330
C1976       C  0.91977515  0.21499390  0.54535610     0.04340
C1977       C  0.92458109  0.19267325  0.53904301    -0.09750
H1978       H  0.87207255  0.17106737  0.53860052     0.09930
H1979       H  0.89373933  0.23733826  0.55692463     0.07460
H1980       H  0.94170182  0.18764117  0.53609371     0.07310
O1981       O  0.93591751  0.22775901  0.82601529    -0.87130
C1982       C  0.99941635  0.22692814  0.80383248     0.88900
Mg1983     Mg  0.90824656  0.22083164  0.80496373     1.58150
O1984       O  0.97828401  0.28041412  0.81469573    -0.86860
O1985       O  0.94775389  0.25442916  0.84861881    -0.74190
C1986       C  0.93064889  0.28085462  0.71456812     0.93950
O1987       O  0.95776067  0.19793658  0.78722106    -0.74000
O1988       O  0.91664642  0.26600630  0.72076516    -0.81510
Mg1989     Mg  0.96262712  0.20417469  0.82506777     1.57960
C1990       C  0.98498004  0.33238879  0.77255326     0.93880
O1991       O  0.96658343  0.20863029  0.86305509    -0.79770
H1992       H  0.96399655  0.30215915  0.83586627    -0.05110
C1993       C  0.97597703  0.25947405  0.75022711     0.88810
O1994       O  0.90174742  0.25870514  0.80136192    -0.74280
O1995       O  0.98474239  0.23105220  0.81790460    -0.87040
O1996       O  0.99696862  0.31824192  0.78312068    -0.79850
C1997       C  0.03739711  0.27217575  0.82390700     0.93990
C1998       C  0.97766968  0.21971349  0.87756790     0.93840
Mg1999     Mg  0.94599255  0.29642179  0.76672502     1.57950
O2000       O  0.94252389  0.29173317  0.72859640    -0.79780
O2001       O  0.95085386  0.30272128  0.80450017    -0.74020
O2002       O  0.02356957  0.26148312  0.83627386    -0.79860
O2003       O  0.94039638  0.17402267  0.83115467    -0.81570
O2004       O  0.88489156  0.23892598  0.75534754    -0.79890
C2005       C  0.96466867  0.29548045  0.81900865     0.88280
O2006       O  0.92377637  0.26956679  0.77396137    -0.87030
O2007       O  0.97268941  0.27297480  0.76570575    -0.87140
O2008       O  0.96061927  0.24661164  0.74289219    -0.74190
Mg2009     Mg  0.98542517  0.25807586  0.84152512     1.57970
O2010       O  0.03125646  0.28434334  0.80753573    -0.81570
H2011       H  0.91589730  0.24267998  0.84837735    -0.05290
O2012       O  0.93048693  0.22033476  0.77686636    -0.86840
H2013       H  0.94493206  0.19867356  0.75571760    -0.05120
H2014       H  0.90242801  0.29049100  0.78907449    -0.05290
C2015       C  0.94413140  0.20529318  0.77259088     0.88260
C2016       C  0.93250638  0.24138870  0.84136064     0.88840
C2017       C  0.90895115  0.27362194  0.78788497     0.88890
H2018       H  0.99253828  0.25819798  0.74309335    -0.05270
O2019       O  0.00652395  0.24175777  0.79020867    -0.74300
Mg2020     Mg  0.92297719  0.24279619  0.75023426     1.58000
H2021       H  0.00583821  0.21002157  0.80259375    -0.05290
C2022       C  0.92392637  0.16805081  0.81910605     0.93880
O2023       O  0.87751917  0.21555375  0.78370673    -0.81530
C2024       C  0.87121976  0.22766510  0.76734599     0.93940
O2025       O  0.99098269  0.23537916  0.87174212    -0.81510
Mg2026     Mg  0.00049947  0.27967664  0.78653313     1.58180
O2027       O  0.91243203  0.18250305  0.80838098    -0.79850
O2028       O  0.96817773  0.32649869  0.76094867    -0.81540
C2029       C  0.02801941  0.29544113  0.04275528     0.04350
C2030       C  0.02270760  0.31717542  0.04966709    -0.11800
C2031       C  0.00060315  0.32397024  0.05254428     0.01850
C2032       C  0.98345541  0.30786880  0.05127862    -0.10330
C2033       C  0.98845859  0.28522278  0.04612565     0.04340
C2034       C  0.01085724  0.27930292  0.04137671    -0.09750
H2035       H  0.03595510  0.32945269  0.05175061     0.09930
H2036       H  0.96627742  0.31309775  0.05346035     0.07460
H2037       H  0.01493649  0.26224975  0.03664391     0.07310
C2038       C  0.97032570  0.26792045  0.04546688     0.04350
C2039       C  0.95338959  0.26792493  0.06187980    -0.11800
C2040       C  0.93649244  0.25143196  0.06198592     0.01850
C2041       C  0.93662756  0.23481952  0.04518005    -0.10330
C2042       C  0.95332249  0.23445111  0.02850684     0.04340
C2043       C  0.97007105  0.25111591  0.02881474    -0.09750
H2044       H  0.95347543  0.28075050  0.07476191     0.09930
H2045       H  0.92373312  0.22203607  0.04514101     0.07460
H2046       H  0.98299732  0.25094157  0.01609387     0.07310
C2047       C  0.94724488  0.17749715  0.99974624     0.04350
C2048       C  0.95221689  0.18314987  0.97757966    -0.11800
C2049       C  0.95781047  0.20517207  0.97164602     0.01850
C2050       C  0.95838014  0.22188572  0.98832108    -0.10330
C2051       C  0.95325458  0.21660553  0.01086439     0.04340
C2052       C  0.94791524  0.19415722  0.01642350    -0.09750
H2053       H  0.95228510  0.17009825  0.96487982     0.09930
H2054       H  0.96222548  0.23903122  0.98360486     0.07460
H2055       H  0.94453400  0.18954254  0.03367970     0.07310
C2056       C  0.90865326  0.25539899  0.11939793     0.04350
C2057       C  0.88663702  0.24982755  0.11412452    -0.11800
C2058       C  0.88027628  0.24542275  0.09197902     0.01850
C2059       C  0.89657909  0.24591306  0.07492619    -0.10330
C2060       C  0.91904702  0.25124107  0.07995410     0.04340
C2061       C  0.92482858  0.25619664  0.10237324    -0.09750
H2062       H  0.87430761  0.24899856  0.12745297     0.09930
H2063       H  0.89164552  0.24273052  0.05773982     0.07460
H2064       H  0.94197285  0.25999651  0.10676887     0.07310
C2065       C  0.38006437  0.24266895  0.59189863     0.04350
C2066       C  0.39682917  0.24398602  0.57547572    -0.11800
C2067       C  0.41891538  0.24982702  0.58140667     0.01850
C2068       C  0.42357397  0.25529528  0.60399082    -0.10330
C2069       C  0.40664796  0.25438044  0.62040803     0.04340
C2070       C  0.38520040  0.24745785  0.61419494    -0.09750
H2071       H  0.39256035  0.24070191  0.55812534     0.09930
H2072       H  0.44032452  0.26012081  0.60884895     0.07460
H2073       H  0.37213501  0.24625505  0.62676129     0.07310
C2074       C  0.52716336  0.29653730  0.54203340     0.04350
C2075       C  0.52088188  0.31881902  0.54594912    -0.11800
C2076       C  0.49896671  0.32425086  0.55168189     0.01850
C2077       C  0.48264679  0.30735832  0.55265628    -0.10330
C2078       C  0.48826401  0.28487383  0.54786328     0.04340
C2079       C  0.51072550  0.27959867  0.54282806    -0.09750
H2080       H  0.53320553  0.33214399  0.54476183     0.09930
H2081       H  0.46555434  0.31188833  0.55649456     0.07460
H2082       H  0.51550467  0.26229184  0.54005327     0.07310
C2083       C  0.45855266  0.20461894  0.47383079     0.04350
C2084       C  0.45528145  0.18227289  0.48004226    -0.11800
C2085       C  0.45150137  0.17629517  0.50232708     0.01850
C2086       C  0.45092919  0.19300045  0.51889867    -0.10330
C2087       C  0.45466043  0.21571733  0.51311705     0.04340
C2088       C  0.45860015  0.22138575  0.49040638    -0.09750
H2089       H  0.45555393  0.16928274  0.46726716     0.09930
H2090       H  0.44828879  0.18824018  0.53624596     0.07460
H2091       H  0.46090783  0.23876781  0.48554992     0.07310
C2092       C  0.47071047  0.26702770  0.54781215     0.04350
C2093       C  0.45368039  0.26679082  0.56416714    -0.11800
C2094       C  0.43697179  0.25008344  0.56406391     0.01850
C2095       C  0.43758989  0.23342288  0.54731787    -0.10330
C2096       C  0.45432486  0.23342599  0.53074913     0.04340
C2097       C  0.47075998  0.25030960  0.53111863    -0.09750
H2098       H  0.45341760  0.27967781  0.57697598     0.09930
H2099       H  0.42497587  0.22035581  0.54713977     0.07460
H2100       H  0.48363842  0.25041831  0.51833342     0.07310
C2101       C  0.37970790  0.50279159  0.25203038     0.04350
C2102       C  0.38466534  0.49594256  0.23019524    -0.11800
C2103       C  0.40671049  0.49363076  0.22282834     0.01850
C2104       C  0.42412751  0.49510519  0.23857256    -0.10330
C2105       C  0.41945063  0.49998249  0.26132557     0.04340
C2106       C  0.39715359  0.50441832  0.26773176    -0.09750
H2107       H  0.37116176  0.49351076  0.21833517     0.09930
H2108       H  0.44125955  0.49327259  0.23302916     0.07460
H2109       H  0.39337447  0.50912929  0.28485865     0.07310
C2110       C  0.49947997  0.42657819  0.29050010     0.04350
C2111       C  0.52138377  0.43224098  0.29610369    -0.11800
C2112       C  0.52767006  0.45452895  0.29994451     0.01850
C2113       C  0.51128129  0.47138154  0.29921780    -0.10330
C2114       C  0.48879568  0.46596474  0.29453646     0.04340
C2115       C  0.48307069  0.44338545  0.29002872    -0.09750
H2116       H  0.53369951  0.41900411  0.29755013     0.09930
H2117       H  0.51609418  0.48872926  0.30182251     0.07460
H2118       H  0.46593386  0.43882064  0.28638759     0.07310
C2119       C  0.45817232  0.54409826  0.36984517     0.04350
C2120       C  0.45939043  0.52819393  0.35250223    -0.11800
C2121       C  0.45462123  0.53440020  0.33014379     0.01850
C2122       C  0.44940125  0.55703525  0.32544062    -0.10330
C2123       C  0.44845525  0.57308726  0.34276850     0.04340
C2124       C  0.45235273  0.56622345  0.36486611    -0.09750
H2125       H  0.46333531  0.51093116  0.35658052     0.09930
H2126       H  0.44661635  0.56225503  0.30826906     0.07460
H2127       H  0.45106181  0.57828918  0.37842997     0.07310
C2128       C  0.45485082  0.51725287  0.31183946     0.04350
C2129       C  0.43817115  0.51718515  0.29519521    -0.11800
C2130       C  0.43776539  0.50061859  0.27830775     0.01850
C2131       C  0.45452537  0.48408977  0.27812805    -0.10330
C2132       C  0.47138881  0.48384049  0.29454359     0.04340
C2133       C  0.47139255  0.50052413  0.31127624    -0.09750
H2134       H  0.42531304  0.52993136  0.29554862     0.09930
H2135       H  0.45431659  0.47123335  0.26527319     0.07460
H2136       H  0.48424779  0.50037597  0.32403712     0.07310
C2137       C  0.45785364  0.82295638  0.58990171     0.04350
C2138       C  0.45375051  0.81814259  0.61238660    -0.11800
C2139       C  0.45097025  0.79605242  0.61976899     0.01850
C2140       C  0.45125571  0.77847786  0.60400543    -0.10330
C2141       C  0.45509712  0.78307358  0.58104301     0.04340
C2142       C  0.45862295  0.80550023  0.57417927    -0.09750
H2143       H  0.45298215  0.83184225  0.62437098     0.09930
H2144       H  0.44923385  0.76130725  0.60966843     0.07460
H2145       H  0.46132783  0.80946044  0.55664219     0.07310
C2146       C  0.49865396  0.74303119  0.47294851     0.04350
C2147       C  0.52072022  0.74856609  0.47795109    -0.11800
C2148       C  0.52736180  0.75301844  0.50001077     0.01850
C2149       C  0.51125555  0.75252544  0.51723061    -0.10330
C2150       C  0.48869905  0.74756491  0.51241654     0.04340
C2151       C  0.48256377  0.74280737  0.49007222    -0.09750
H2152       H  0.53280336  0.74949369  0.46441049     0.09930
H2153       H  0.51636073  0.75547496  0.53440682     0.07460
H2154       H  0.46534541  0.73905881  0.48592391     0.07310
C2155       C  0.47161956  0.74740715  0.53064682     0.04350
C2156       C  0.47168712  0.76423226  0.54720503    -0.11800
C2157       C  0.45536133  0.76462058  0.56419585     0.01850
C2158       C  0.43886295  0.74777659  0.56458386    -0.10330
C2159       C  0.43838663  0.73082979  0.54812751     0.04340
C2160       C  0.45490887  0.73076102  0.53130163    -0.09750
H2161       H  0.48435825  0.77724178  0.54673148     0.09930
H2162       H  0.42616572  0.74806257  0.57754687     0.07460
H2163       H  0.45460627  0.71784225  0.51851167     0.07310
C2164       C  0.40746549  0.67510734  0.54150599     0.04350
C2165       C  0.38544768  0.68213409  0.54490730    -0.11800
C2166       C  0.38053791  0.70433394  0.55056118     0.01850
C2167       C  0.39788589  0.72012357  0.55213197    -0.10330
C2168       C  0.42016273  0.71373151  0.54790375     0.04340
C2169       C  0.42481443  0.69104781  0.54287771    -0.09750
H2170       H  0.37188225  0.67015160  0.54331594     0.09930
H2171       H  0.39389522  0.73745690  0.55588082     0.07460
H2172       H  0.44193749  0.68574811  0.54046467     0.07310
O2173       O  0.47254542  0.72009910  0.31981301    -0.87130
C2174       C  0.40861329  0.74133780  0.32002566     0.88900
Mg2175     Mg  0.49958326  0.74216327  0.32690582     1.58150
O2176       O  0.43055751  0.73085998  0.26691428    -0.86860
O2177       O  0.46126514  0.69740647  0.29298082    -0.74190
C2178       C  0.47688430  0.83221380  0.26610355     0.93950
O2179       O  0.44966317  0.75829529  0.34981274    -0.74000
O2180       O  0.48896130  0.82627576  0.28256995    -0.81510
Mg2181     Mg  0.44556213  0.72042124  0.34316728     1.57960
C2182       C  0.42363370  0.77262841  0.21443361     0.93880
O2183       O  0.44188939  0.68228658  0.33874875    -0.79770
H2184       H  0.44531322  0.70992032  0.24526568    -0.05110
C2185       C  0.43075619  0.79535871  0.28743419     0.88810
O2186       O  0.50618559  0.74593184  0.28901167    -0.74280
O2187       O  0.42365328  0.72758680  0.31619750    -0.87040
O2188       O  0.41179072  0.76152519  0.22839639    -0.79850
C2189       C  0.37128034  0.72005670  0.27513353     0.93990
C2190       C  0.43075954  0.66779558  0.32766324     0.93840
Mg2191     Mg  0.46190551  0.77963192  0.25062069     1.57950
O2192       O  0.46577938  0.81813419  0.25444089    -0.79780
O2193       O  0.45768477  0.74168118  0.24447383    -0.74020
O2194       O  0.38547383  0.70888786  0.28647969    -0.79860
O2195       O  0.46793022  0.71437725  0.37298536    -0.81570
O2196       O  0.52145858  0.79172904  0.30848314    -0.79890
C2197       C  0.44426191  0.72680027  0.25185651     0.88280
O2198       O  0.48366116  0.77276895  0.27781910    -0.87030
O2199       O  0.43454329  0.78021960  0.27367817    -0.87140
O2200       O  0.44568990  0.80263284  0.30078949    -0.74190
Mg2201     Mg  0.42352648  0.70398402  0.28929369     1.57970
O2202       O  0.37728836  0.73541494  0.26153732    -0.81570
H2203       H  0.49302104  0.69818576  0.30486783    -0.05290
O2204       O  0.47637349  0.76923837  0.32697426    -0.86840
H2205       H  0.46195277  0.79009066  0.34894181    -0.05120
H2206       H  0.50548567  0.75796373  0.25715052    -0.05290
C2207       C  0.46290495  0.77324552  0.34225459     0.88260
C2208       C  0.47630243  0.70488794  0.30611823     0.88840
C2209       C  0.49879520  0.75913024  0.27396767     0.88890
H2210       H  0.41405806  0.80213265  0.28859258    -0.05270
O2211       O  0.40113150  0.75437914  0.30488024    -0.74300
Mg2212     Mg  0.48336996  0.79617371  0.30489315     1.58000
H2213       H  0.40203575  0.74269274  0.33687141    -0.05290
C2214       C  0.48355502  0.72743419  0.37916035     0.93880
O2215       O  0.52979091  0.76448800  0.33242315    -0.81530
C2216       C  0.53579302  0.78045289  0.31956184     0.93940
O2217       O  0.41788990  0.67373020  0.31178707    -0.81510
Mg2218     Mg  0.40744148  0.75805189  0.26685966     1.58180
O2219       O  0.49488806  0.73910915  0.36527295    -0.79850
O2220       O  0.43996397  0.78487241  0.22046571    -0.81540
O2221       O  0.18346814  0.96470981  0.30716040    -0.87130
C2222       C  0.18914225  0.99529310  0.24738275     0.88900
Mg2223     Mg  0.16930443  0.98154693  0.33508512     1.58150
O2224       O  0.23925313  0.98800984  0.27632235    -0.86860
O2225       O  0.21425107  0.94730839  0.29724909    -0.74190
C2226       C  0.21911543  0.08035041  0.33396077     0.93950
O2227       O  0.15205548  0.00158208  0.28476303    -0.74000
O2228       O  0.20285788  0.07055844  0.34365383    -0.81510
Mg2229     Mg  0.16441807  0.96561755  0.27717163     1.57960
C2230       C  0.28563562  0.03604775  0.28318430     0.93880
O2231       O  0.17535506  0.92875182  0.27045074    -0.79770
H2232       H  0.26087502  0.96761861  0.29169910    -0.05110
C2233       C  0.21020079  0.04877977  0.28168709     0.88810
O2234       O  0.20458884  0.98855698  0.34867343    -0.74280
O2235       O  0.19267037  0.97971269  0.26067522    -0.87040
O2236       O  0.27514155  0.02543587  0.26791897    -0.79850
C2237       C  0.24250185  0.98583411  0.21550079     0.93990
C2238       C  0.19032249  0.91893711  0.25879611     0.93840
Mg2239     Mg  0.24380948  0.03295178  0.31589401     1.57950
O2240       O  0.23393453  0.06967336  0.32296772    -0.79780
O2241       O  0.25558431  0.99700866  0.30811118    -0.74020
O2242       O  0.23022175  0.97107966  0.22495729    -0.79860
O2243       O  0.13300963  0.95275520  0.29386106    -0.81570
O2244       O  0.17737787  0.02883938  0.36755527    -0.79890
C2245       C  0.25238673  0.98361748  0.29176396     0.88280
O2246       O  0.21515726  0.01975699  0.33211835    -0.87030
O2247       O  0.22500743  0.03483634  0.28566617    -0.87140
O2248       O  0.19408452  0.05222813  0.29519766    -0.74190
Mg2249     Mg  0.22227731  0.96032066  0.26162919     1.57970
O2250       O  0.25168138  0.00139159  0.22678551    -0.81570
H2251       H  0.19818794  0.94189119  0.32681258    -0.05290
O2252       O  0.16890765  0.01154779  0.31602965    -0.86840
H2253       H  0.14688153  0.03139460  0.30049186    -0.05120
H2254       H  0.23402956  0.00428532  0.35504086    -0.05290
C2255       C  0.15552669  0.01548725  0.30066019     0.88260
C2256       C  0.19838813  0.95086595  0.31105066     0.88840
C2257       C  0.21852201  0.00446182  0.34577331     0.88890
H2258       H  0.21064137  0.05783466  0.26597229    -0.05270
O2259       O  0.20312314  0.01117595  0.24449718    -0.74300
Mg2260     Mg  0.18566861  0.03949209  0.33070187     1.58000
H2261       H  0.17348123  0.99571178  0.23838787    -0.05290
C2262       C  0.12285002  0.96291337  0.30958776     0.93880
O2263       O  0.15581887  0.99860041  0.36551975    -0.81530
C2264       C  0.16503480  0.01403837  0.37693668     0.93940
O2265       O  0.20500574  0.92994188  0.24799457    -0.81510
Mg2266     Mg  0.23870537  0.01825155  0.25748889     1.58180
O2267       O  0.13308862  0.97479063  0.32404079    -0.79850
O2268       O  0.27572033  0.04486413  0.29985552    -0.81540
C2269       C  0.52794865  0.99222007  0.34024929     0.04350
C2270       C  0.52283859  0.99697765  0.36256263    -0.11800
C2271       C  0.50146829  0.00415303  0.36883820     0.01850
C2272       C  0.48459430  0.00526996  0.35235993    -0.10330
C2273       C  0.48923142  0.99972387  0.32973550     0.04340
C2274       C  0.51127969  0.99377224  0.32383785    -0.09750
H2275       H  0.53582815  0.99533462  0.37510299     0.09930
H2276       H  0.46789705  0.01023458  0.35720443     0.07460
H2277       H  0.51558861  0.99038250  0.30651025     0.07310
C2278       C  0.47121503  0.99975510  0.31230853     0.04350
C2279       C  0.45426781  0.01615093  0.31245508    -0.11800
C2280       C  0.43732300  0.01614717  0.29605462     0.01850
C2281       C  0.43757309  0.99942489  0.27933496    -0.10330
C2282       C  0.45425100  0.98283835  0.27876711     0.04340
C2283       C  0.47093541  0.98318174  0.29538684    -0.09750
H2284       H  0.45427542  0.02895577  0.32534013     0.09930
H2285       H  0.42465294  0.99931790  0.26665684     0.07460
H2286       H  0.48380536  0.97046141  0.29514210     0.07310
C2287       C  0.40750925  0.07280407  0.30028747     0.04350
C2288       C  0.38610583  0.06667907  0.29309299    -0.11800
C2289       C  0.38073592  0.04434575  0.28859757     0.01850
C2290       C  0.39728569  0.02780724  0.29019800    -0.10330
C2291       C  0.41940626  0.03362056  0.29602687     0.04340
C2292       C  0.42423623  0.05622089  0.30147434    -0.09750
H2293       H  0.37320120  0.07931980  0.29155619     0.09930
H2294       H  0.39281579  0.01044529  0.28709734     0.07460
H2295       H  0.44096680  0.06094912  0.30647232     0.07310
C2296       C  0.44680270  0.95367478  0.22207294     0.04350
C2297       C  0.45266512  0.93162360  0.22754209    -0.11800
C2298       C  0.45955875  0.92599599  0.24926220     0.01850
C2299       C  0.46010632  0.94278391  0.26590548    -0.10330
C2300       C  0.45408554  0.96512804  0.26089747     0.04340
C2301       C  0.44767982  0.97039219  0.23872789    -0.09750
H2302       H  0.45193841  0.91874427  0.21470939     0.09930
H2303       H  0.46504386  0.93833566  0.28279174     0.07460
H2304       H  0.44344199  0.98749600  0.23431131     0.07310
C2305       C  0.95004978  0.07326621  0.34150114     0.04350
C2306       C  0.95468236  0.06724061  0.36366645    -0.11800
C2307       C  0.95914990  0.04499767  0.36959792     0.01850
C2308       C  0.95920050  0.02836989  0.35284825    -0.10330
C2309       C  0.95447817  0.03392228  0.33031510     0.04340
C2310       C  0.94978993  0.05652150  0.32484012    -0.09750
H2311       H  0.95477057  0.08009421  0.37654893     0.09930
H2312       H  0.96229172  0.01106911  0.35747826     0.07460
H2313       H  0.94654763  0.06119429  0.30759049     0.07310
C2314       C  0.97110182  0.98260829  0.29558123     0.04350
C2315       C  0.97092650  0.99935920  0.31229642    -0.11800
C2316       C  0.95441007  0.01616713  0.31259019     0.01850
C2317       C  0.93775385  0.01589985  0.29595637    -0.10330
C2318       C  0.93748414  0.99928491  0.27915027     0.04340
C2319       C  0.95431577  0.98285126  0.27902961    -0.09750
H2320       H  0.98369365  0.99935493  0.32513673     0.09930
H2321       H  0.92486479  0.02862883  0.29613969     0.07460
H2322       H  0.95426319  0.97014476  0.26602440     0.07310
C2323       C  0.90712370  0.99537645  0.22295758     0.04350
C2324       C  0.92430755  0.99527228  0.23904727    -0.11800
C2325       C  0.91936942  0.99889256  0.26198879     0.01850
C2326       C  0.89696749  0.00247288  0.26850714    -0.10330
C2327       C  0.87974865  0.00208755  0.25253812     0.04340
C2328       C  0.88505268  0.99827804  0.23004939    -0.09750
H2329       H  0.94146989  0.99327550  0.23365203     0.09930
H2330       H  0.89286716  0.00515075  0.28601151     0.07460
H2331       H  0.87178875  0.99826128  0.21768569     0.07310
C2332       C  0.02804388  0.95392372  0.29924823     0.04350
C2333       C  0.02244311  0.93242824  0.29170652    -0.11800
C2334       C  0.00028259  0.92614371  0.28796066     0.01850
C2335       C  0.98349520  0.94255997  0.28940143    -0.10330
C2336       C  0.98884345  0.96496422  0.29518975     0.04340
C2337       C  0.01121010  0.97032440  0.30064514    -0.09750
H2338       H  0.03554342  0.92014991  0.28918938     0.09930
H2339       H  0.96626152  0.93778547  0.28660461     0.07460
H2340       H  0.01555728  0.98719930  0.30580606     0.07310
O2341       O  0.73380100  0.98192903  0.27368072    -0.87130
C2342       C  0.71343398  0.04633215  0.27299623     0.88900
Mg2343     Mg  0.71247181  0.95448253  0.26635858     1.58150
O2344       O  0.72238187  0.02402423  0.32624393    -0.86860
O2345       O  0.75601082  0.99303534  0.30086755    -0.74190
C2346       C  0.62151475  0.97697903  0.32543132     0.93950
O2347       O  0.69617058  0.00504139  0.24385231    -0.74000
O2348       O  0.62794607  0.96364463  0.31008133    -0.81510
Mg2349     Mg  0.73385725  0.00914917  0.25051018     1.57960
C2350       C  0.68012573  0.03125812  0.37769357     0.93880
O2351       O  0.77178892  0.01216340  0.25561574    -0.79770
H2352       H  0.74258281  0.00915158  0.34840028    -0.05110
C2353       C  0.65828787  0.02301506  0.30433944     0.88810
O2354       O  0.70804513  0.94805047  0.30421798    -0.74280
O2355       O  0.72697878  0.03126676  0.27734731    -0.87040
O2356       O  0.69104463  0.04254623  0.36317574    -0.79850
C2357       C  0.73352530  0.08347424  0.31923668     0.93990
C2358       C  0.78631123  0.02273456  0.26718204     0.93840
Mg2359     Mg  0.67329876  0.99259462  0.34167677     1.57950
O2360       O  0.63514714  0.98907689  0.33660269    -0.79780
O2361       O  0.71092612  0.99686573  0.34854469    -0.74020
O2362       O  0.74583535  0.06953244  0.30867268    -0.79860
O2363       O  0.73944251  0.98718953  0.22023863    -0.81570
O2364       O  0.66257904  0.93152419  0.28383119    -0.79890
C2365       C  0.72596079  0.01026634  0.34142893     0.88280
O2366       O  0.68074333  0.97021212  0.31488784    -0.87030
O2367       O  0.67344523  0.01939029  0.31799029    -0.87140
O2368       O  0.65091968  0.00775746  0.29131977    -0.74190
Mg2369     Mg  0.74987398  0.03098745  0.30480716     1.57970
O2370       O  0.71658596  0.07734876  0.33060029    -0.81570
H2371       H  0.75528658  0.96118361  0.28875998    -0.05290
O2372       O  0.68493319  0.97729565  0.26557343    -0.86840
H2373       H  0.66455345  0.99264658  0.24391077    -0.05120
H2374       H  0.69547500  0.94863994  0.33586966    -0.05290
C2375       C  0.68122756  0.99140501  0.25073533     0.88260
C2376       C  0.74871911  0.97803023  0.28752653     0.88840
C2377       C  0.69450319  0.95527506  0.31901591     0.88890
H2378       H  0.65148692  0.03976229  0.30307435    -0.05270
O2379       O  0.69949850  0.05343113  0.28745022    -0.74300
Mg2380     Mg  0.65783669  0.96986080  0.28753692     1.58000
H2381       H  0.71287860  0.05304962  0.25615358    -0.05290
C2382       C  0.72752809  0.97063782  0.21405356     0.93880
O2383       O  0.69101068  0.92390259  0.26082708    -0.81530
C2384       C  0.67460289  0.91766930  0.27287647     0.93940
O2385       O  0.78053196  0.03604641  0.28286349    -0.81510
Mg2386     Mg  0.69493806  0.04684689  0.32510217     1.58180
O2387       O  0.71654305  0.95861794  0.22794687    -0.79850
O2388       O  0.66738475  0.01517780  0.37180421    -0.81540
O2389       O  0.16867986  0.27062349  0.55683389    -0.87130
C2390       C  0.19884199  0.26446171  0.49675500     0.88900
Mg2391     Mg  0.18577380  0.28492786  0.58456495     1.58150
O2392       O  0.19243218  0.21482573  0.52689912    -0.86860
O2393       O  0.15153691  0.23929502  0.54765737    -0.74190
C2394       C  0.28505420  0.23683488  0.58361752     0.93950
O2395       O  0.20551714  0.30217959  0.53395512    -0.74000
O2396       O  0.27504015  0.25332804  0.59266097    -0.81510
Mg2397     Mg  0.16981949  0.28961357  0.52651597     1.57960
C2398       C  0.24134281  0.16885301  0.53375093     0.93880
O2399       O  0.13321678  0.27907518  0.51910883    -0.79770
H2400       H  0.17289371  0.19254854  0.54270732    -0.05110
C2401       C  0.25280515  0.24501999  0.53079947     0.88810
O2402       O  0.19324373  0.24945878  0.59802773    -0.74280
O2403       O  0.18352299  0.26105398  0.51036406    -0.87040
O2404       O  0.22916738  0.17843331  0.51908893    -0.79850
C2405       C  0.18990120  0.21085933  0.46607834     0.93990
C2406       C  0.12301543  0.26376399  0.50816939     0.93840
Mg2407     Mg  0.23831363  0.21105624  0.56533763     1.57950
O2408       O  0.27467410  0.22166049  0.57272820    -0.79780
O2409       O  0.20263206  0.19816595  0.55810781    -0.74020
O2410       O  0.17527241  0.22331165  0.47539322    -0.79860
O2411       O  0.15730038  0.32129122  0.54291915    -0.81570
O2412       O  0.23271962  0.27691222  0.61673654    -0.79890
C2413       C  0.18866929  0.20141636  0.54235166     0.88280
O2414       O  0.22455131  0.23933531  0.58166315    -0.87030
O2415       O  0.23920187  0.22988554  0.53509479    -0.87140
O2416       O  0.25625308  0.26129648  0.54423118    -0.74190
Mg2417     Mg  0.16439803  0.23103893  0.51215453     1.57970
O2418       O  0.20454494  0.20082350  0.47770399    -0.81570
H2419       H  0.14603296  0.25602567  0.57683453    -0.05290
O2420       O  0.21545034  0.28551190  0.56528274    -0.86840
H2421       H  0.23509794  0.30779744  0.54962860    -0.05120
H2422       H  0.20910824  0.22005595  0.60441835    -0.05290
C2423       C  0.21930950  0.29894908  0.54986595     0.88260
C2424       C  0.15494581  0.25559629  0.56105332     0.88840
C2425       C  0.20922448  0.23568144  0.59518881     0.88890
H2426       H  0.26159072  0.24468939  0.51494450    -0.05270
O2427       O  0.21463457  0.25045468  0.49387004    -0.74300
Mg2428     Mg  0.24359685  0.26945961  0.57987725     1.58000
H2429       H  0.19908224  0.28002650  0.48742529    -0.05290
C2430       C  0.16698833  0.33141193  0.55896550     0.93880
O2431       O  0.20309260  0.29896551  0.61463364    -0.81530
C2432       C  0.21782886  0.28897794  0.62616111     0.93940
O2433       O  0.13331974  0.24748172  0.49905856    -0.81510
Mg2434     Mg  0.22205336  0.21499947  0.50759861     1.58180
O2435       O  0.17852774  0.32112282  0.57358545    -0.79850
O2436       O  0.25150980  0.18017808  0.54863141    -0.81540
C2437       C  0.13030793  0.25242676  0.83984373     0.04350
C2438       C  0.14757808  0.25391118  0.82386735    -0.11800
C2439       C  0.16986263  0.24891109  0.82976446     0.01850
C2440       C  0.17481568  0.24374808  0.85237557    -0.10330
C2441       C  0.15761745  0.24257292  0.86842579     0.04340
C2442       C  0.13549575  0.24525259  0.86151557    -0.09750
H2443       H  0.14370660  0.25902245  0.80689865     0.09930
H2444       H  0.19199026  0.24158746  0.85760893     0.07460
H2445       H  0.12221479  0.24299917  0.87369636     0.07310
C2446       C  0.22124343  0.23290680  0.79541405     0.04350
C2447       C  0.20451939  0.23290581  0.81204126    -0.11800
C2448       C  0.18788236  0.24953771  0.81241354     0.01850
C2449       C  0.18825531  0.26639798  0.79584024    -0.10330
C2450       C  0.20479658  0.26665916  0.77901385     0.04340
C2451       C  0.22117831  0.24981079  0.77895826    -0.09750
H2452       H  0.20444483  0.21988572  0.82473261     0.09930
H2453       H  0.17560356  0.27935422  0.79598635     0.07460
H2454       H  0.23401972  0.24993266  0.76613451     0.07310
C2455       C  0.20942614  0.29652327  0.72259754     0.04350
C2456       C  0.20947128  0.27947107  0.73889011    -0.11800
C2457       C  0.20513056  0.28465105  0.76164604     0.01850
C2458       C  0.20086302  0.30714921  0.76771638    -0.10330
C2459       C  0.20132649  0.32418357  0.75147136     0.04340
C2460       C  0.20580021  0.31871172  0.72917880    -0.09750
H2461       H  0.21196311  0.26221144  0.73374143     0.09930
H2462       H  0.19764344  0.31151181  0.78506656     0.07460
H2463       H  0.20574783  0.33186901  0.71658679     0.07310
C2464       C  0.25061779  0.17649720  0.80118721     0.04350
C2465       C  0.27285109  0.18318349  0.79841419    -0.11800
C2466       C  0.27836932  0.20537388  0.79334741     0.01850
C2467       C  0.26152119  0.22156940  0.79183808    -0.10330
C2468       C  0.23902731  0.21550017  0.79552836     0.04340
C2469       C  0.23369868  0.19280135  0.79985145    -0.09750
H2470       H  0.28616074  0.17102377  0.80032520     0.09930
H2471       H  0.26603611  0.23891181  0.78867217     0.07460
H2472       H  0.21640065  0.18781458  0.80181889     0.07310
C2473       C  0.19756175  0.42657544  0.09357891     0.04350
C2474       C  0.20220800  0.43271888  0.11570208    -0.11800
C2475       C  0.20726772  0.45490196  0.12121371     0.01850
C2476       C  0.20743292  0.47138801  0.10442440    -0.10330
C2477       C  0.20230630  0.46569721  0.08202256     0.04340
C2478       C  0.19731131  0.44308478  0.07674567    -0.09750
H2479       H  0.20246878  0.41996371  0.12869882     0.09930
H2480       H  0.21112610  0.48862778  0.10892256     0.07460
H2481       H  0.19418436  0.43816627  0.05953328     0.07310
C2482       C  0.27838099  0.54180917  0.04863748     0.04350
C2483       C  0.26094696  0.52612278  0.04966221    -0.11800
C2484       C  0.23869357  0.53298931  0.04606730     0.01850
C2485       C  0.23423885  0.55597543  0.04204383    -0.10330
C2486       C  0.25185774  0.57168790  0.04106288     0.04340
C2487       C  0.27378733  0.56403973  0.04324315    -0.09750
H2488       H  0.26473370  0.50870648  0.05322074     0.09930
H2489       H  0.21714463  0.56165779  0.04050908     0.07460
H2490       H  0.28760317  0.57574285  0.04156992     0.07310
C2491       C  0.18643998  0.49992955  0.03045667     0.04350
C2492       C  0.18609489  0.48359328  0.04748004    -0.11800
C2493       C  0.20264708  0.48324278  0.06418718     0.01850
C2494       C  0.21964177  0.49963120  0.06370939    -0.10330
C2495       C  0.22022255  0.51619714  0.04687471     0.04340
C2496       C  0.20348862  0.51623482  0.03037868    -0.09750
H2497       H  0.17297252  0.47103406  0.04762516     0.09930
H2498       H  0.23256852  0.49941018  0.07639729     0.07460
H2499       H  0.20388434  0.52884218  0.01727561     0.07310
C2500       C  0.13032543  0.49706853  0.00066950     0.04350
C2501       C  0.14646541  0.49681115  0.01774379    -0.11800
C2502       C  0.16928671  0.49967998  0.01245810     0.01850
C2503       C  0.17569230  0.50255467  0.98984695    -0.10330
C2504       C  0.15961463  0.50239677  0.97273213     0.04340
C2505       C  0.13716558  0.49950744  0.97837753    -0.09750
H2506       H  0.14123082  0.49521972  0.03507926     0.09930
H2507       H  0.19317027  0.50452494  0.98553603     0.07460
H2508       H  0.12468433  0.49972644  0.96522234     0.07310
O2509       O  0.18341640  0.28521807  0.03582557    -0.87130
C2510       C  0.18861592  0.25357296  0.09514252     0.88900
Mg2511     Mg  0.16975653  0.26858928  0.00758491     1.58150
O2512       O  0.23907655  0.26106724  0.06663996    -0.86860
O2513       O  0.21434606  0.30224165  0.04605130    -0.74190
C2514       C  0.21909455  0.16990174  0.00622403     0.93950
O2515       O  0.15200510  0.24768106  0.05752286    -0.74000
O2516       O  0.20402611  0.18137112  0.99666461    -0.81510
Mg2517     Mg  0.16418359  0.28363415  0.06572631     1.57960
C2518       C  0.28539237  0.21247563  0.05985931     0.93880
O2519       O  0.17487788  0.32064457  0.07331062    -0.79770
H2520       H  0.26145885  0.28136155  0.05201516    -0.05110
C2521       C  0.20993017  0.20014106  0.06016810     0.88810
O2522       O  0.20544628  0.26201891  0.99451986    -0.74280
O2523       O  0.19231683  0.26938756  0.08213377    -0.87040
O2524       O  0.27489054  0.22332783  0.07498491    -0.79850
C2525       C  0.24180870  0.26299938  0.12749523     0.93990
C2526       C  0.18973334  0.33024703  0.08533850     0.93840
Mg2527     Mg  0.24413198  0.21627809  0.02681128     1.57950
O2528       O  0.23375184  0.17931669  0.01862564    -0.79780
O2529       O  0.25638594  0.25202024  0.03538299    -0.74020
O2530       O  0.22973205  0.27780631  0.11801741    -0.79860
O2531       O  0.13280973  0.29632872  0.04905871    -0.81570
O2532       O  0.17911297  0.22246752  0.97461209    -0.79890
C2533       C  0.25275264  0.26543900  0.05161827     0.88280
O2534       O  0.21594566  0.23062892  0.01068727    -0.87030
O2535       O  0.22488259  0.21414871  0.05672627    -0.87140
O2536       O  0.19408701  0.19702419  0.04628823    -0.74190
Mg2537     Mg  0.22200718  0.28875589  0.08148091     1.57970
O2538       O  0.25074424  0.24725284  0.11628517    -0.81570
H2539       H  0.19845740  0.30829299  0.01659328    -0.05290
O2540       O  0.16935443  0.23837031  0.02633087    -0.86840
H2541       H  0.14720639  0.21804939  0.04129789    -0.05120
H2542       H  0.23524913  0.24691381  0.98856381    -0.05290
C2543       C  0.15577656  0.23404541  0.04147389     0.88260
C2544       C  0.19848591  0.29905376  0.03220252     0.88840
C2545       C  0.21951921  0.24630210  0.99747284     0.88890
H2546       H  0.21004244  0.19068896  0.07564941    -0.05270
O2547       O  0.20249447  0.23764112  0.09785119    -0.74300
Mg2548     Mg  0.18646504  0.21102506  0.01107344     1.58000
H2549       H  0.17286371  0.25297814  0.10401835    -0.05290
C2550       C  0.12286042  0.28636204  0.03306101     0.93880
O2551       O  0.15671176  0.25186008  0.97663443    -0.81530
C2552       C  0.16670344  0.23699009  0.96516059     0.93940
O2553       O  0.20458892  0.31893025  0.09544913    -0.81510
Mg2554     Mg  0.23821900  0.23060228  0.08520110     1.58180
O2555       O  0.13331532  0.27490661  0.01841352    -0.79850
O2556       O  0.27551117  0.20362747  0.04317488    -0.81540
O2557       O  0.22481168  0.73972536  0.08221156    -0.87130
C2558       C  0.21972429  0.79890384  0.04973136     0.88900
Mg2559     Mg  0.23860899  0.71109345  0.06633301     1.58150
O2560       O  0.16964753  0.76981974  0.05713626    -0.86860
O2561       O  0.19386296  0.75032877  0.09894377    -0.74190
C2562       C  0.19208291  0.71054060  0.96593496     0.93950
O2563       O  0.25695901  0.76100233  0.04487443    -0.74000
O2564       O  0.20725206  0.70062955  0.97702872    -0.81510
Mg2565     Mg  0.24407293  0.76970959  0.08028390     1.57960
C2566       C  0.12418644  0.76192124  0.00797295     0.93880
O2567       O  0.23295233  0.77789619  0.11696348    -0.79770
H2568       H  0.14741617  0.75460534  0.07716195    -0.05110
C2569       C  0.20020300  0.76373755  0.99723482     0.88810
O2570       O  0.20317459  0.69805262  0.05879100    -0.74280
O2571       O  0.21605258  0.78566321  0.06535837    -0.87040
O2572       O  0.13378338  0.77684767  0.01990079    -0.79850
C2573       C  0.16685667  0.83092928  0.05730727     0.93990
C2574       C  0.21820315  0.79031268  0.12618406     0.93840
Mg2575     Mg  0.16597151  0.73001713  0.01214586     1.57950
O2576       O  0.17713296  0.72226978  0.97565405    -0.79780
O2577       O  0.15298634  0.73825035  0.04776161    -0.74020
O2578       O  0.17921519  0.82180686  0.07211681    -0.79860
O2579       O  0.27538643  0.75351869  0.09352587    -0.81570
O2580       O  0.23141763  0.67798633  0.01918857    -0.79890
C2581       C  0.15625616  0.75446413  0.06133790     0.88280
O2582       O  0.19375973  0.71366028  0.02679524    -0.87030
O2583       O  0.18492178  0.76002542  0.01079440    -0.87140
O2584       O  0.21615464  0.74994318  0.99428562    -0.74190
Mg2585     Mg  0.18633983  0.78546441  0.08451964     1.57970
O2586       O  0.15649067  0.81905055  0.04301931    -0.81570
H2587       H  0.20970051  0.72095878  0.10561966    -0.05290
O2588       O  0.24008031  0.72945402  0.03580420    -0.86840
H2589       H  0.26272509  0.74411053  0.01584599    -0.05120
H2590       H  0.17402408  0.69160055  0.04264175    -0.05290
C2591       C  0.25372524  0.74457361  0.03157621     0.88260
C2592       C  0.20970195  0.73638343  0.09606209     0.88840
C2593       C  0.18972880  0.70060568  0.04247983     0.88890
H2594       H  0.20026694  0.77937084  0.98802212    -0.05270
O2595       O  0.20576872  0.80179248  0.03388713    -0.74300
Mg2596     Mg  0.22378059  0.71449578  0.00785940     1.58000
H2597       H  0.23539343  0.80795599  0.04931801    -0.05290
C2598       C  0.28532620  0.73685939  0.08470353     0.93880
O2599       O  0.25161747  0.67983908  0.05028938    -0.81530
C2600       C  0.24299663  0.66853218  0.03442633     0.93940
O2601       O  0.20351132  0.80018957  0.11445451    -0.81510
Mg2602     Mg  0.17027728  0.78822106  0.02678156     1.58180
O2603       O  0.27492229  0.72166562  0.07387528    -0.79850
O2604       O  0.13543127  0.74662481  0.99836404    -0.81540
C2605       C  0.25225443  0.99298935  0.11881317     0.04350
C2606       C  0.27421708  0.99533152  0.11112684    -0.11800
C2607       C  0.27885676  0.00275452  0.08942446     0.01850
C2608       C  0.26129661  0.00465963  0.07398438    -0.10330
C2609       C  0.23908175  0.00016618  0.08059369     0.04340
C2610       C  0.23463571  0.99488726  0.10331613    -0.09750
H2611       H  0.28794967  0.99265216  0.12264816     0.09930
H2612       H  0.26495313  0.00968542  0.05691297     0.07460
H2613       H  0.21754361  0.99309529  0.10901443     0.07310
C2614       C  0.18697050  0.98468381  0.04740980     0.04350
C2615       C  0.20382751  0.98464837  0.06378660    -0.11800
C2616       C  0.22066429  0.00116911  0.06380305     0.01850
C2617       C  0.22041676  0.01789222  0.04705991    -0.10330
C2618       C  0.20388072  0.01800547  0.03031103     0.04340
C2619       C  0.18709315  0.00144497  0.03081306    -0.09750
H2620       H  0.20395804  0.97155183  0.07640321     0.09930
H2621       H  0.23337312  0.03061047  0.04676806     0.07460
H2622       H  0.17422186  0.00139374  0.01805598     0.07310
C2623       C  0.13012668  0.95629549  0.04506214     0.04350
C2624       C  0.13624847  0.93382706  0.04726650    -0.11800
C2625       C  0.15856258  0.92744304  0.04924393     0.01850
C2626       C  0.17520473  0.94412017  0.04970943    -0.10330
C2627       C  0.16941286  0.96700142  0.04737255     0.04340
C2628       C  0.14674866  0.97292854  0.04478594    -0.09750
H2629       H  0.12333661  0.92101297  0.04733264     0.09930
H2630       H  0.19257455  0.93929184  0.05113459     0.07460
H2631       H  0.14202086  0.99040854  0.04323739     0.07310
C2632       C  0.21068968  0.07308526  0.99818214     0.04350
C2633       C  0.20806577  0.06538719  0.97617685    -0.11800
C2634       C  0.20248277  0.04312070  0.97162506     0.01850
C2635       C  0.20078394  0.02774878  0.98936927    -0.10330
C2636       C  0.20477119  0.03469298  0.01167823     0.04340
C2637       C  0.20954610  0.05756709  0.01596726    -0.09750
H2638       H  0.20939032  0.07716387  0.96235481     0.09930
H2639       H  0.19688330  0.01035968  0.98570211     0.07460
H2640       H  0.21150107  0.06337741  0.03307467     0.07310
O2641       O  0.42425970  0.47968327  0.56973719    -0.87130
C2642       C  0.44387709  0.54449597  0.56921555     0.88900
Mg2643     Mg  0.44716522  0.45350692  0.57676693     1.58150
O2644       O  0.43528427  0.52113354  0.51628337    -0.86860
O2645       O  0.40214263  0.48966508  0.54213603    -0.74190
C2646       C  0.53719270  0.47881373  0.51683087     0.93950
O2647       O  0.46166748  0.50415575  0.59929071    -0.74000
O2648       O  0.53118764  0.46587001  0.53272031    -0.81510
Mg2649     Mg  0.42384213  0.50717711  0.59287277     1.57960
C2650       C  0.47645551  0.52960054  0.46387623     0.93880
O2651       O  0.38541413  0.51029814  0.58860428    -0.79770
H2652       H  0.41508756  0.50615016  0.49410936    -0.05110
C2653       C  0.49904772  0.52365231  0.53728622     0.88810
O2654       O  0.45139346  0.44695193  0.53881683    -0.74280
O2655       O  0.43053494  0.52898630  0.56545379    -0.87040
O2656       O  0.46494078  0.54053249  0.47818241    -0.79850
C2657       C  0.42242234  0.58054436  0.52309143     0.93990
C2658       C  0.37150245  0.52084380  0.57629559     0.93840
Mg2659     Mg  0.48476186  0.49204351  0.50024060     1.57950
O2660       O  0.52283948  0.48954546  0.50525842    -0.79780
O2661       O  0.44705836  0.49489170  0.49327644    -0.74020
O2662       O  0.41144486  0.56590166  0.53418147    -0.79860
O2663       O  0.41896214  0.48491144  0.62347205    -0.81570
O2664       O  0.49654618  0.43262128  0.55765466    -0.79890
C2665       C  0.43176784  0.50760356  0.50088679     0.88280
O2666       O  0.47779606  0.47007621  0.52740435    -0.87030
O2667       O  0.48413893  0.51922219  0.52356213    -0.87140
O2668       O  0.50665460  0.50896463  0.55075836    -0.74190
Mg2669     Mg  0.40791401  0.52759617  0.53783527     1.57970
O2670       O  0.43843788  0.57484573  0.51029739    -0.81570
H2671       H  0.40315867  0.45814936  0.55505001    -0.05290
O2672       O  0.47343458  0.47764737  0.57655788    -0.86840
H2673       H  0.49367913  0.49301630  0.59841557    -0.05120
H2674       H  0.46328986  0.44780321  0.50689916    -0.05290
C2675       C  0.47696554  0.49139906  0.59175394     0.88260
C2676       C  0.40947599  0.47515241  0.55592467     0.88840
C2677       C  0.46438226  0.45461918  0.52367396     0.88890
H2678       H  0.50532425  0.54066065  0.53828763    -0.05270
O2679       O  0.45704270  0.55206104  0.55418698    -0.74300
Mg2680     Mg  0.50072161  0.47095433  0.55470069     1.58000
H2681       H  0.44481288  0.55138742  0.58597116    -0.05290
C2682       C  0.43225799  0.46934002  0.62936529     0.93880
O2683       O  0.47047869  0.42423335  0.58294376    -0.81530
C2684       C  0.48568722  0.41831651  0.56928359     0.93940
O2685       O  0.37755032  0.53246316  0.55946319    -0.81510
Mg2686     Mg  0.46143883  0.54543078  0.51633638     1.58180
O2687       O  0.44344123  0.45831774  0.61486097    -0.79850
O2688       O  0.49021938  0.51453206  0.46992585    -0.81540
C2689       C  0.17662579  0.87021424  0.07064905     0.24810
C2690       C  0.16536476  0.85583457  0.05552429    -0.23290
C2691       C  0.15388697  0.86554735  0.03729173     0.19720
C2692       C  0.15327946  0.88872694  0.03454971     0.24760
C2693       C  0.16349133  0.90307000  0.05021581    -0.23240
C2694       C  0.17557078  0.89364324  0.06806001     0.19660
F2695       F  0.18556522  0.90708231  0.08348400    -0.13200
F2696       F  0.18843651  0.86172390  0.08810586    -0.15560
F2697       F  0.14219694  0.89726695  0.01660685    -0.15560
F2698       F  0.14311960  0.85272707  0.02184771    -0.13200
C2699       C  0.19819329  0.11207402  0.99011578     0.24810
C2700       C  0.21272895  0.09770739  0.00175363    -0.23290
C2701       C  0.22973002  0.10718726  0.01500128     0.19720
C2702       C  0.23235715  0.13064661  0.01616212     0.24760
C2703       C  0.21816533  0.14499842  0.00382284    -0.23240
C2704       C  0.20112165  0.13521129  0.99070318     0.19660
F2705       F  0.18680137  0.14793993  0.97848940    -0.13200
F2706       F  0.18080127  0.10366735  0.97810508    -0.15560
F2707       F  0.24865187  0.13920775  0.02948858    -0.15560
F2708       F  0.24406358  0.09378744  0.02642281    -0.13200
C2709       C  0.23237940  0.62939901  0.02135268     0.24810
C2710       C  0.24563872  0.64369052  0.03483815    -0.23290
C2711       C  0.26005584  0.63388625  0.05068846     0.19720
C2712       C  0.26086594  0.61073283  0.05336625     0.24760
C2713       C  0.24825868  0.59636467  0.03948720    -0.23240
C2714       C  0.23383069  0.60593534  0.02354655     0.19660
F2715       F  0.22145123  0.59264922  0.00982971    -0.13200
F2716       F  0.21775419  0.63802960  0.00628180    -0.15560
F2717       F  0.27400654  0.60236349  0.06992747    -0.15560
F2718       F  0.27343369  0.64664542  0.06398303    -0.13200
C2719       C  0.21187621  0.36530810  0.09162010     0.24810
C2720       C  0.19116106  0.35515283  0.08652660    -0.23290
C2721       C  0.17281429  0.36909319  0.08148025     0.19720
C2722       C  0.17498430  0.39259565  0.08257914     0.24760
C2723       C  0.19551820  0.40239003  0.08849828    -0.23240
C2724       C  0.21395626  0.38856300  0.09257843     0.19660
F2725       F  0.23406015  0.39770292  0.09796441    -0.13200
F2726       F  0.23041788  0.35279081  0.09543228    -0.15560
F2727       F  0.15688925  0.40573187  0.07878349    -0.15560
F2728       F  0.15268605  0.36004275  0.07613601    -0.13200
C2729       C  0.17460423  0.22417628  0.90270139     0.24810
C2730       C  0.16192472  0.24140052  0.89292696    -0.23290
C2731       C  0.15147330  0.25718467  0.90696461     0.19720
C2732       C  0.15239018  0.25514796  0.93015279     0.24760
C2733       C  0.16461866  0.23767248  0.94025859    -0.23240
C2734       C  0.17606063  0.22236777  0.92619605     0.19660
F2735       F  0.18863104  0.20564870  0.93506715    -0.13200
F2736       F  0.18510072  0.20883364  0.88958133    -0.15560
F2737       F  0.14133268  0.27068132  0.94259271    -0.15560
F2738       F  0.14024558  0.27488338  0.89814770    -0.13200
C2739       C  0.23290068  0.28149974  0.66526300     0.24810
C2740       C  0.21626492  0.29043334  0.65106095    -0.23290
C2741       C  0.19677975  0.29940279  0.66095922     0.19720
C2742       C  0.19425429  0.29991899  0.68413349     0.24760
C2743       C  0.21115929  0.29190270  0.69826314    -0.23240
C2744       C  0.23037490  0.28233395  0.68871496     0.19660
F2745       F  0.24701323  0.27460234  0.70206156    -0.13200
F2746       F  0.25173070  0.27228711  0.65656175    -0.15560
F2747       F  0.17521276  0.30869138  0.69290048    -0.15560
F2748       F  0.17978990  0.30758661  0.64832057    -0.13200
C2749       C  0.83922720  0.99236223  0.24992665     0.24810
C2750       C  0.85605842  0.00648156  0.25843184    -0.23290
C2751       C  0.84987636  0.02604928  0.27006407     0.19720
C2752       C  0.82727369  0.03167114  0.27262259     0.24760
C2753       C  0.81039988  0.01791741  0.26337872    -0.23240
C2754       C  0.81675750  0.99805703  0.25216063     0.19660
F2755       F  0.80125700  0.98369530  0.24368853    -0.13200
F2756       F  0.84458202  0.97291326  0.23930070    -0.15560
F2757       F  0.82199219  0.05078620  0.28382636    -0.15560
F2758       F  0.86572209  0.04021759  0.27817497    -0.13200
C2759       C  0.56449682  0.00335564  0.32377996     0.24810
C2760       C  0.55130968  0.98700959  0.33440881    -0.23290
C2761       C  0.56128770  0.96704656  0.34201322     0.19720
C2762       C  0.58422281  0.96349144  0.33896544     0.24760
C2763       C  0.59744369  0.98013608  0.32886291    -0.23240
C2764       C  0.58744320  0.00001620  0.32118804     0.19660
F2765       F  0.59997243  0.01620578  0.31115802    -0.13200
F2766       F  0.55527252  0.02294176  0.31677123    -0.15560
F2767       F  0.59363626  0.94418146  0.34642990    -0.15560
F2768       F  0.54884467  0.95123591  0.35270888    -0.13200
C2769       C  0.26033351  0.00167610  0.18105289     0.24810
C2770       C  0.24539566  0.98612958  0.19070395    -0.23290
C2771       C  0.23189888  0.97301073  0.17629629     0.19720
C2772       C  0.23365681  0.97526401  0.15285259     0.24760
C2773       C  0.24860160  0.99094416  0.14345653    -0.23240
C2774       C  0.26135452  0.00450398  0.15797739     0.19660
F2775       F  0.27469862  0.02108732  0.14987394    -0.13200
F2776       F  0.27393805  0.01466889  0.19388812    -0.15560
F2777       F  0.22096230  0.96197632  0.13943314    -0.15560
F2778       F  0.21672416  0.95831208  0.18479297    -0.13200
C2779       C  0.08714495  0.94390312  0.31941728     0.24810
C2780       C  0.09840013  0.96220044  0.31001813    -0.23290
C2781       C  0.08622919  0.97932475  0.29944750     0.19720
C2782       C  0.06305984  0.97741554  0.29691851     0.24760
C2783       C  0.05173791  0.95845389  0.30530237    -0.23240
C2784       C  0.06395594  0.94223762  0.31749862     0.19660
F2785       F  0.05349736  0.92435407  0.32701929    -0.13200
F2786       F  0.09868780  0.92734866  0.32987950    -0.15560
F2787       F  0.05204043  0.99332252  0.28499906    -0.15560
F2788       F  0.09699067  0.99734123  0.29053019    -0.13200
C2789       C  0.32174646  0.02704086  0.30110436     0.24810
C2790       C  0.31017189  0.03640776  0.28288521    -0.23290
C2791       C  0.32220104  0.04592736  0.26503180     0.19720
C2792       C  0.34555169  0.04736850  0.26614961     0.24760
C2793       C  0.35705478  0.03865254  0.28479580    -0.23240
C2794       C  0.34501640  0.02797864  0.30195978     0.19660
F2795       F  0.35572665  0.01978811  0.32027042    -0.13200
F2796       F  0.31040906  0.01722185  0.31826840    -0.15560
F2797       F  0.35691057  0.05801138  0.24951419    -0.15560
F2798       F  0.31130324  0.05486848  0.24720315    -0.13200
C2799       C  0.47975191  0.89007814  0.24002928     0.24810
C2800       C  0.46546698  0.90230857  0.25439838    -0.23290
C2801       C  0.45572779  0.89128146  0.27286014     0.19720
C2802       C  0.45997027  0.86853888  0.27671111     0.24760
C2803       C  0.47375776  0.85633068  0.26207303    -0.23240
C2804       C  0.48366258  0.86718103  0.24373284     0.19660
F2805       F  0.49711865  0.85563101  0.22949731    -0.13200
F2806       F  0.48997812  0.90032740  0.22243256    -0.15560
F2807       F  0.44993830  0.85814477  0.29434711    -0.15560
F2808       F  0.44126551  0.90221639  0.28658716    -0.13200
C2809       C  0.40065428  0.63428939  0.54928001     0.24810
C2810       C  0.41177878  0.65097673  0.53675716    -0.23290
C2811       C  0.42593490  0.64435283  0.51912906     0.19720
C2812       C  0.42889550  0.62155006  0.51414476     0.24760
C2813       C  0.41753643  0.60481480  0.52654243    -0.23240
C2814       C  0.40322292  0.61160501  0.54407807     0.19660
F2815       F  0.39211316  0.59632765  0.55684563    -0.13200
F2816       F  0.38761311  0.63988098  0.56708837    -0.15560
F2817       F  0.44302894  0.61596261  0.49721945    -0.15560
F2818       F  0.43660600  0.65994496  0.50638209    -0.13200
C2819       C  0.48038028  0.75300924  0.43678414     0.24810
C2820       C  0.49294507  0.73778907  0.44948077    -0.23290
C2821       C  0.50235903  0.71887267  0.43895529     0.19720
C2822       C  0.49926129  0.71525879  0.41596429     0.24760
C2823       C  0.48712085  0.73076337  0.40324469    -0.23240
C2824       C  0.47759646  0.74957542  0.41375906     0.19660
F2825       F  0.46570020  0.76468196  0.40162932    -0.13200
F2826       F  0.47163125  0.77164089  0.44651870    -0.15560
F2827       F  0.50847659  0.69697397  0.40602970    -0.15560
F2828       F  0.51482156  0.70413390  0.45094825    -0.13200
C2829       C  0.44594699  0.54170338  0.40968754     0.24810
C2830       C  0.46264308  0.53821965  0.39351773    -0.23290
C2831       C  0.48411942  0.53184144  0.40048433     0.19720
C2832       C  0.48889218  0.52931183  0.42339355     0.24760
C2833       C  0.47226358  0.53332471  0.43965467    -0.23240
C2834       C  0.45066457  0.53931422  0.43247676     0.19660
F2835       F  0.43383460  0.54229356  0.44748616    -0.13200
F2836       F  0.42497671  0.54754388  0.40332982    -0.15560
F2837       F  0.50989283  0.52356147  0.42968144    -0.15560
F2838       F  0.50066934  0.52896902  0.38516420    -0.13200
C2839       C  0.45702893  0.61385081  0.34873123     0.24810
C2840       C  0.44388100  0.59722847  0.33832018    -0.23290
C2841       C  0.42589855  0.60394842  0.32476603     0.19720
C2842       C  0.42114562  0.62680441  0.32174511     0.24760
C2843       C  0.43417502  0.64347433  0.33241298    -0.23240
C2844       C  0.45211674  0.63657573  0.34607094     0.19660
F2845       F  0.46553675  0.65177761  0.35644229    -0.13200
F2846       F  0.47513692  0.60813341  0.36117088    -0.15560
F2847       F  0.40376431  0.63251735  0.30833194    -0.15560
F2848       F  0.41258630  0.58839934  0.31480234    -0.13200
C2849       C  0.49114214  0.35553779  0.57847116     0.24810
C2850       C  0.49365013  0.34793654  0.55630263    -0.23290
C2851       C  0.49388145  0.36349165  0.53865377     0.19720
C2852       C  0.49181774  0.38641213  0.54306012     0.24760
C2853       C  0.48945079  0.39417468  0.56525291    -0.23240
C2854       C  0.48886902  0.37853313  0.58292573     0.19660
F2855       F  0.48674327  0.38557321  0.60448701    -0.13200
F2856       F  0.49167027  0.34074869  0.59579275    -0.15560
F2857       F  0.49143710  0.40098212  0.52553208    -0.15560
F2858       F  0.49622835  0.35640600  0.51711877    -0.13200
C2859       C  0.34484714  0.22022268  0.59534422     0.24810
C2860       C  0.35644278  0.23866588  0.58615195    -0.23290
C2861       C  0.34450512  0.25553242  0.57501542     0.19720
C2862       C  0.32122871  0.25462063  0.57411622     0.24760
C2863       C  0.30957480  0.23664008  0.58399669    -0.23240
C2864       C  0.32150705  0.21904948  0.59396695     0.19660
F2865       F  0.31051908  0.20144007  0.60337856    -0.13200
F2866       F  0.35610891  0.20387267  0.60641504    -0.15560
F2867       F  0.30996391  0.27150331  0.56385262    -0.15560
F2868       F  0.35530853  0.27364155  0.56633899    -0.13200
C2869       C  0.06403790  0.30639588  0.02406688     0.24810
C2870       C  0.05168544  0.29061335  0.03681438    -0.23290
C2871       C  0.06288442  0.27198432  0.04588147     0.19720
C2872       C  0.08609488  0.27009501  0.04357185     0.24760
C2873       C  0.09839549  0.28688825  0.03246177    -0.23240
C2874       C  0.08723416  0.30474878  0.02230542     0.19660
F2875       F  0.09887927  0.32097878  0.01132801    -0.13200
F2876       F  0.05370359  0.32390545  0.01388679    -0.15560
F2877       F  0.09675146  0.25243089  0.05314311    -0.15560
F2878       F  0.05168235  0.25643659  0.05820888    -0.13200
C2879       C  0.07397149  0.25766555  0.81090477     0.24810
C2880       C  0.06138961  0.26883779  0.82738948    -0.23290
C2881       C  0.07163367  0.27560677  0.84730787     0.19720
C2882       C  0.09429625  0.27136722  0.85074106     0.24760
C2883       C  0.10687964  0.25911862  0.83476671    -0.23240
C2884       C  0.09644286  0.25252541  0.81466815     0.19660
F2885       F  0.10757876  0.24018958  0.79912562    -0.13200
F2886       F  0.06413744  0.25073388  0.79157873    -0.15560
F2887       F  0.10390495  0.27941139  0.86972303    -0.15560
F2888       F  0.05971576  0.28647760  0.86336061    -0.13200
C2889       C  0.94768727  0.20320319  0.93112674     0.24810
C2890       C  0.96278110  0.21013281  0.94777772    -0.23290
C2891       C  0.98315883  0.21997447  0.94129667     0.19720
C2892       C  0.98841280  0.22265004  0.91848831     0.24760
C2893       C  0.97339789  0.21538348  0.90176369    -0.23240
C2894       C  0.95291563  0.20568624  0.90845664     0.19660
F2895       F  0.93743958  0.19922024  0.89310199    -0.13200
F2896       F  0.92760152  0.19420102  0.93686045    -0.15560
F2897       F  0.00830500  0.23206330  0.91281604    -0.15560
F2898       F  0.99826848  0.22635099  0.95702986    -0.13200
C2899       C  0.06393097  0.24219609  0.51212828     0.24810
C2900       C  0.05146351  0.26107046  0.50592908    -0.23290
C2901       C  0.06250485  0.28142985  0.50132523     0.19720
C2902       C  0.08588658  0.28273310  0.50256782     0.24760
C2903       C  0.09839682  0.26346110  0.50765257    -0.23240
C2904       C  0.08718069  0.24332047  0.51284701     0.19660
F2905       F  0.09880088  0.22464715  0.51865710    -0.13200
F2906       F  0.05357664  0.22232139  0.51637439    -0.15560
F2907       F  0.09632109  0.30241823  0.49776239    -0.15560
F2908       F  0.05067499  0.29974738  0.49492345    -0.13200
C2909       C  0.96181851  0.28444892  0.65974063     0.24810
C2910       C  0.94441354  0.28734614  0.64435173    -0.23290
C2911       C  0.92224775  0.28839533  0.65205797     0.19720
C2912       C  0.91753716  0.28638278  0.67500616     0.24760
C2913       C  0.93502877  0.28391249  0.69046543    -0.23240
C2914       C  0.95719095  0.28281616  0.68263777     0.19660
F2915       F  0.97435912  0.27970345  0.69716689    -0.13200
F2916       F  0.98334429  0.28373309  0.65256872    -0.15560
F2917       F  0.89606269  0.28766681  0.68221356    -0.15560
F2918       F  0.90532175  0.29215802  0.63741681    -0.13200
C2919       C  0.92118725  0.12681034  0.32251474     0.24810
C2920       C  0.93548479  0.14348641  0.33136880    -0.23290
C2921       C  0.95504558  0.13664606  0.34257434     0.19720
C2922       C  0.96011691  0.11391159  0.34488436     0.24760
C2923       C  0.94565529  0.09728850  0.33644768    -0.23240
C2924       C  0.92620246  0.10394948  0.32511007     0.19660
F2925       F  0.91168191  0.08833528  0.31714350    -0.13200
F2926       F  0.90220482  0.13255352  0.31151931    -0.15560
F2927       F  0.97945833  0.10811640  0.35523918    -0.15560
F2928       F  0.96980479  0.15192343  0.35077991    -0.13200
C2929       C  0.92172579  0.28574641  0.17366098     0.24810
C2930       C  0.92002803  0.26809377  0.18927726    -0.23290
C2931       C  0.91579014  0.24616790  0.18148226     0.19720
C2932       C  0.91299055  0.24202978  0.15861126     0.24760
C2933       C  0.91434520  0.25967172  0.14308490    -0.23240
C2934       C  0.91876066  0.28156180  0.15069482     0.19660
F2935       F  0.91941797  0.29893844  0.13596620    -0.13200
F2936       F  0.92558899  0.30708690  0.18069656    -0.15560
F2937       F  0.90890884  0.22072995  0.15153789    -0.15560
F2938       F  0.91500615  0.22856764  0.19596025    -0.13200
C2939       C  0.00803816  0.22408999  0.41287910     0.24810
C2940       C  0.98813020  0.23093699  0.40275281    -0.23290
C2941       C  0.97191059  0.24208322  0.41562229     0.19720
C2942       C  0.97578888  0.24697184  0.43823020     0.24760
C2943       C  0.99575151  0.24014547  0.44862539    -0.23240
C2944       C  0.01162992  0.22815420  0.43573354     0.19660
F2945       F  0.03058732  0.22013409  0.44525593    -0.13200
F2946       F  0.02387147  0.21325845  0.40069377    -0.15560
F2947       F  0.96043787  0.25930945  0.44957096    -0.15560
F2948       F  0.95266765  0.24920470  0.40594579    -0.13200
C2949       C  0.58043142  0.27440164  0.51497424     0.24810
C2950       C  0.59706207  0.28471754  0.52826146    -0.23290
C2951       C  0.59027279  0.29829854  0.54641963     0.19720
C2952       C  0.56767926  0.30139400  0.55117231     0.24760
C2953       C  0.55109946  0.29147423  0.53767967    -0.23240
C2954       C  0.55770633  0.27784230  0.51958691     0.19660
F2955       F  0.54219237  0.26826318  0.50600632    -0.13200
F2956       F  0.58606172  0.26102075  0.49742230    -0.15560
F2957       F  0.56202258  0.31381477  0.56943122    -0.15560
F2958       F  0.60544396  0.30818579  0.56018910    -0.13200
C2959       C  0.82074220  0.19693202  0.57111028     0.24810
C2960       C  0.81097513  0.21742340  0.56533416    -0.23290
C2961       C  0.82414600  0.23424780  0.55533989     0.19720
C2962       C  0.84665073  0.23032803  0.55033525     0.24760
C2963       C  0.85664872  0.20969809  0.55597693    -0.23240
C2964       C  0.84347563  0.19330293  0.56708596     0.19660
F2965       F  0.85257608  0.17372166  0.57424348    -0.13200
F2966       F  0.80830211  0.18051072  0.58085523    -0.15560
F2967       F  0.85822794  0.24632824  0.53897340    -0.15560
F2968       F  0.81485145  0.25413570  0.54933280    -0.13200
C2969       C  0.60065347  0.47382454  0.51976965     0.24810
C2970       C  0.60749942  0.49231903  0.50678665    -0.23290
C2971       C  0.59109121  0.50628502  0.49731035     0.19720
C2972       C  0.56843370  0.50142064  0.49993308     0.24760
C2973       C  0.56142603  0.48268975  0.51261886    -0.23240
C2974       C  0.57787597  0.46911228  0.52276639     0.19660
F2975       F  0.57202021  0.45107848  0.53542523    -0.13200
F2976       F  0.61598987  0.45984174  0.52896782    -0.15560
F2977       F  0.55340546  0.51552991  0.49039298    -0.15560
F2978       F  0.59699876  0.52493183  0.48556204    -0.13200
C2979       C  0.67661624  0.39577915  0.57413831     0.24810
C2980       C  0.69463920  0.40245216  0.58770145    -0.23290
C2981       C  0.70767257  0.38581799  0.59811744     0.19720
C2982       C  0.70247397  0.36312892  0.59564785     0.24760
C2983       C  0.68440546  0.35627402  0.58210568    -0.23240
C2984       C  0.67161093  0.37294277  0.57125420     0.19660
F2985       F  0.65421025  0.36725082  0.55781310    -0.13200
F2986       F  0.66348037  0.41134952  0.56408358    -0.15560
F2987       F  0.71572770  0.34791334  0.60610633    -0.15560
F2988       F  0.72587484  0.39149894  0.61048083    -0.13200
C2989       C  0.17378518  0.02435604  0.43967249     0.24810
C2990       C  0.15931495  0.00822750  0.44906891    -0.23290
C2991       C  0.14672348  0.99451129  0.43456779     0.19720
C2992       C  0.14770310  0.99740893  0.41144571     0.24760
C2993       C  0.16218157  0.01345377  0.40179024    -0.23240
C2994       C  0.17533672  0.02685409  0.41624312     0.19660
F2995       F  0.18997611  0.04212013  0.40780102    -0.13200
F2996       F  0.18616307  0.03792484  0.45311126    -0.15560
F2997       F  0.13451980  0.98402199  0.39857594    -0.15560
F2998       F  0.13356014  0.97778748  0.44276848    -0.13200
C2999       C  0.23749307  0.10675123  0.51811560     0.24810
C3000       C  0.24538007  0.09671583  0.53787632    -0.23290
C3001       C  0.25108570  0.11030568  0.55621541     0.19720
C3002       C  0.24994366  0.13355710  0.55466232     0.24760
C3003       C  0.24283172  0.14396715  0.53465836    -0.23240
C3004       C  0.23612427  0.13025935  0.51651294     0.19660
F3005       F  0.22882239  0.13953652  0.49706622    -0.13200
F3006       F  0.23202712  0.09387471  0.50013959    -0.15560
F3007       F  0.25568782  0.14578730  0.57301683    -0.15560
F3008       F  0.25831800  0.10093419  0.57566978    -0.13200
C3009       C  0.81228015  0.24831873  0.77417219     0.24810
C3010       C  0.80144735  0.23836133  0.75573613    -0.23290
C3011       C  0.81373924  0.22395465  0.74152806     0.19720
C3012       C  0.83651832  0.22025285  0.74527252     0.24760
C3013       C  0.84717964  0.23040481  0.76354563    -0.23240
C3014       C  0.83490779  0.24421655  0.77810643     0.19660
F3015       F  0.84513625  0.25448187  0.79567402    -0.13200
F3016       F  0.80129158  0.26291675  0.78774226    -0.15560
F3017       F  0.84817026  0.20681462  0.73108646    -0.15560
F3018       F  0.80369247  0.21346471  0.72399726    -0.13200
C3019       C  0.72784630  0.25202555  0.68787477     0.24810
C3020       C  0.74557064  0.26273621  0.69908367    -0.23290
C3021       C  0.75946448  0.27760879  0.68691279     0.19720
C3022       C  0.75604551  0.28114546  0.66391876     0.24760
C3023       C  0.73848496  0.27022517  0.65288036    -0.23240
C3024       C  0.72427994  0.25586970  0.66502227     0.19660
F3025       F  0.70731535  0.24497739  0.65449134    -0.13200
F3026       F  0.71460946  0.23700694  0.69875833    -0.15560
F3027       F  0.76977984  0.29524775  0.65246276    -0.15560
F3028       F  0.77634266  0.28874517  0.69730835    -0.13200
C3029       C  0.39550980  0.27332169  0.65639948     0.24810
C3030       C  0.41087720  0.25997364  0.64431706    -0.23290
C3031       C  0.42877404  0.25007406  0.65587766     0.19720
C3032       C  0.43056408  0.25249720  0.67913294     0.24760
C3033       C  0.41445045  0.26464626  0.69118790    -0.23240
C3034       C  0.39716807  0.27540575  0.67971846     0.19660
F3035       F  0.38156242  0.28731907  0.69116302    -0.13200
F3036       F  0.37853756  0.28389950  0.64566683    -0.15560
F3037       F  0.44751500  0.24211445  0.69008836    -0.15560
F3038       F  0.44368626  0.23684573  0.64495564    -0.13200
C3039       C  0.33917062  0.20952708  0.80732535     0.24810
C3040       C  0.34898420  0.21213531  0.78594971    -0.23290
C3041       C  0.33503091  0.21531781  0.76721319     0.19720
C3042       C  0.31172896  0.21461889  0.76972010     0.24760
C3043       C  0.30219188  0.21105042  0.79097465    -0.23240
C3044       C  0.31605478  0.20898079  0.80975150     0.19660
F3045       F  0.30709906  0.20567163  0.83044899    -0.13200
F3046       F  0.35193356  0.20764406  0.82604973    -0.15560
F3047       F  0.29851132  0.21624363  0.75131144    -0.15560
F3048       F  0.34389057  0.21816521  0.74642477    -0.13200
C3049       C  0.57222580  0.29936563  0.82395375     0.24810
C3050       C  0.56031312  0.28713557  0.80784615    -0.23290
C3051       C  0.57191517  0.27519896  0.79117089     0.19720
C3052       C  0.59520230  0.27625014  0.79000005     0.24760
C3053       C  0.60712413  0.28952852  0.80531479    -0.23240
C3054       C  0.59552038  0.30074619  0.82257235     0.19660
F3055       F  0.60675009  0.31374380  0.83751966    -0.13200
F3056       F  0.56124697  0.31083345  0.84025799    -0.15560
F3057       F  0.60598163  0.26551621  0.77306457    -0.15560
F3058       F  0.56058159  0.26285662  0.77574807    -0.13200
C3059       C  0.68271367  0.85822739  0.29263576     0.24810
C3060       C  0.66310536  0.84761987  0.28501600    -0.23290
C3061       C  0.64767842  0.86027245  0.27227914     0.19720
C3062       C  0.65131156  0.88313711  0.26823740     0.24760
C3063       C  0.67081852  0.89350974  0.27594860    -0.23240
C3064       C  0.68663546  0.88088321  0.28785702     0.19660
F3065       F  0.70545756  0.89084584  0.29580734    -0.13200
F3066       F  0.69758193  0.84705940  0.30565862    -0.15560
F3067       F  0.63586640  0.89512372  0.25670151    -0.15560
F3068       F  0.62906543  0.85051321  0.26363661    -0.13200
C3069       C  0.58980273  0.80066288  0.29289482     0.24810
C3070       C  0.60616845  0.79114091  0.30688187    -0.23290
C3071       C  0.59926823  0.77814891  0.32532948     0.19720
C3072       C  0.57645118  0.77505949  0.32988164     0.24760
C3073       C  0.56003743  0.78506076  0.31613020    -0.23240
C3074       C  0.56713132  0.79789269  0.29754731     0.19660
F3075       F  0.55218094  0.80731639  0.28327765    -0.13200
F3076       F  0.59576645  0.81242270  0.27428603    -0.15560
F3077       F  0.57051342  0.76233431  0.34783121    -0.15560
F3078       F  0.61458281  0.76888620  0.33928898    -0.13200
C3079       C  0.55817909  0.47343692  0.32221872     0.24810
C3080       C  0.55157987  0.45959512  0.30428406    -0.23290
C3081       C  0.56813590  0.44925237  0.29109685     0.19720
C3082       C  0.59068101  0.45201585  0.29609200     0.24760
C3083       C  0.59746864  0.46581393  0.31408370    -0.23240
C3084       C  0.58088619  0.47664517  0.32699548     0.19660
F3085       F  0.58653558  0.49032915  0.34431156    -0.13200
F3086       F  0.54267789  0.48343042  0.33550473    -0.15560
F3087       F  0.60581291  0.44152053  0.28274131    -0.15560
F3088       F  0.56251940  0.43664188  0.27295056    -0.13200
C3089       C  0.73338374  0.64588967  0.32768571     0.24810
C3090       C  0.71277350  0.65247463  0.33685780    -0.23290
C3091       C  0.69713928  0.63590717  0.34287434     0.19720
C3092       C  0.70205370  0.61318633  0.34013983     0.24760
C3093       C  0.72276608  0.60639125  0.33114541    -0.23240
C3094       C  0.73833646  0.62303959  0.32479161     0.19660
F3095       F  0.75848292  0.61723102  0.31611070    -0.13200
F3096       F  0.74897351  0.66154725  0.32217963    -0.15560
F3097       F  0.68608775  0.59788929  0.34562112    -0.15560
F3098       F  0.67684306  0.64179012  0.35119400    -0.13200
C3099       C  0.67945916  0.53181348  0.41881637     0.24810
C3100       C  0.66978357  0.51791657  0.40225597    -0.23290
C3101       C  0.65764500  0.49880481  0.40919691     0.19720
C3102       C  0.65523083  0.49379041  0.43193197     0.24760
C3103       C  0.66447018  0.50791167  0.44842883    -0.23240
C3104       C  0.67674253  0.52688882  0.44165565     0.19660
F3105       F  0.68553992  0.54107954  0.45714859    -0.13200
F3106       F  0.69141249  0.55032553  0.41299940    -0.15560
F3107       F  0.64400069  0.47483305  0.43783621    -0.15560
F3108       F  0.64854755  0.48443966  0.39402686    -0.13200
C3109       C  0.81747771  0.75218859  0.24491271     0.24810
C3110       C  0.80089916  0.73909699  0.25547210    -0.23290
C3111       C  0.80755188  0.72170589  0.26994201     0.19720
C3112       C  0.83029784  0.71737341  0.27354896     0.24760
C3113       C  0.84689328  0.73019731  0.26252771    -0.23240
C3114       C  0.84006112  0.74763350  0.24810141     0.19660
F3115       F  0.85518374  0.76094147  0.23745468    -0.13200
F3116       F  0.81185551  0.76993943  0.23178929    -0.15560
F3117       F  0.83598052  0.70057698  0.28782066    -0.15560
F3118       F  0.79207963  0.70856583  0.28025077    -0.13200
C3119       C  0.00307276  0.86276160  0.29212446     0.24810
C3120       C  0.98920225  0.85570602  0.27438149    -0.23290
C3121       C  0.97829840  0.87224754  0.26141406     0.19720
C3122       C  0.98144592  0.89516460  0.26595992     0.24760
C3123       C  0.99533551  0.90202661  0.28367883    -0.23240
C3124       C  0.00578399  0.88550260  0.29688848     0.19660
F3125       F  0.01838017  0.89134273  0.31491583    -0.13200
F3126       F  0.01356946  0.84769674  0.30555072    -0.15560
F3127       F  0.97127204  0.91060397  0.25273210    -0.15560
F3128       F  0.96454244  0.86634512  0.24430531    -0.13200
C3129       C  0.23891075  0.46686536  0.17481941     0.24810
C3130       C  0.22179485  0.46466575  0.19089351    -0.23290
C3131       C  0.19977727  0.46057504  0.18360214     0.19720
C3132       C  0.19504402  0.45839521  0.16080652     0.24760
C3133       C  0.21213962  0.46026614  0.14483216    -0.23240
C3134       C  0.23410954  0.46453599  0.15190798     0.19660
F3135       F  0.25097064  0.46562147  0.13668938    -0.13200
F3136       F  0.26031777  0.47059698  0.18132008    -0.15560
F3137       F  0.17370120  0.45432141  0.15424491    -0.15560
F3138       F  0.18264006  0.45929498  0.19851415    -0.13200
C3139       C  0.32077234  0.52526698  0.24562977     0.24810
C3140       C  0.31040654  0.51685726  0.26488622    -0.23290
C3141       C  0.32304728  0.50497575  0.28078365     0.19720
C3142       C  0.34573969  0.50077424  0.27702863     0.24760
C3143       C  0.35622771  0.50888104  0.25750728    -0.23240
C3144       C  0.34357537  0.52177901  0.24218870     0.19660
F3145       F  0.35328557  0.53109013  0.22381420    -0.13200
F3146       F  0.30883427  0.53698327  0.23024500    -0.15560
F3147       F  0.35710467  0.48792267  0.29193247    -0.15560
F3148       F  0.31312626  0.49662064  0.29952372    -0.13200
C3149       C  0.30852114  0.71583432  0.26655379     0.24810
C3150       C  0.30122770  0.71090971  0.28842788    -0.23290
C3151       C  0.31697323  0.70903356  0.30572840     0.19720
C3152       C  0.33972179  0.71164617  0.30122118     0.24760
C3153       C  0.34719598  0.71620881  0.27925557    -0.23240
C3154       C  0.33135321  0.71858650  0.26200142     0.19660
F3155       F  0.33801926  0.72286563  0.24064286    -0.13200
F3156       F  0.29360137  0.71705572  0.24947466    -0.15560
F3157       F  0.35440392  0.71030523  0.31851707    -0.15560
F3158       F  0.31024373  0.70456029  0.32704253    -0.13200
C3159       C  0.23134378  0.64469201  0.32374240     0.24810
C3160       C  0.24618190  0.65142309  0.30668784    -0.23290
C3161       C  0.25765801  0.63472435  0.29452956     0.19720
C3162       C  0.25477972  0.61199157  0.29955872     0.24760
C3163       C  0.23980470  0.60511983  0.31652365    -0.23240
C3164       C  0.22807233  0.62185072  0.32851402     0.19660
F3165       F  0.21325495  0.61622718  0.34484850    -0.13200
F3166       F  0.22026752  0.66021084  0.33615964    -0.15560
F3167       F  0.26628410  0.59674280  0.28718293    -0.15560
F3168       F  0.27132469  0.64032811  0.27718604    -0.13200
C3169       C  0.21385226  0.88468737  0.26034047     0.24810
C3170       C  0.19236508  0.89424346  0.25935561    -0.23290
C3171       C  0.17356235  0.88005417  0.25963835     0.19720
C3172       C  0.17632732  0.85665934  0.25936227     0.24760
C3173       C  0.19786693  0.84730944  0.25935286    -0.23240
C3174       C  0.21653482  0.86146072  0.26033622     0.19660
F3175       F  0.23745701  0.85270539  0.26011046    -0.13200
F3176       F  0.23237539  0.89787623  0.26124225    -0.15560
F3177       F  0.15810004  0.84315718  0.25773608    -0.15560
F3178       F  0.15266038  0.88879179  0.25893412    -0.13200
C3179       C  0.23079787  0.77978918  0.16550483     0.24810
C3180       C  0.21675847  0.79226779  0.15110899    -0.23290
C3181       C  0.19945501  0.80506747  0.16081689     0.19720
C3182       C  0.19621225  0.80531128  0.18392506     0.24760
C3183       C  0.21063366  0.79357420  0.19835031    -0.23240
C3184       C  0.22783215  0.78057394  0.18892086     0.19660
F3185       F  0.24210997  0.76910962  0.20234320    -0.13200
F3186       F  0.24733745  0.76673525  0.15702826    -0.15560
F3187       F  0.17870357  0.81717646  0.19225602    -0.15560
F3188       F  0.18523325  0.81733340  0.14803050    -0.13200
C3189       C  0.09348228  0.77118260  0.35134404     0.24810
C3190       C  0.10598396  0.75872770  0.33548431    -0.23290
C3191       C  0.09548359  0.75198181  0.31546101     0.19720
C3192       C  0.07308270  0.75731400  0.31156910     0.24760
C3193       C  0.06057601  0.76888495  0.32782723    -0.23240
C3194       C  0.07085833  0.77572271  0.34774329     0.19660
F3195       F  0.05902415  0.78693394  0.36361999    -0.13200
F3196       F  0.10316378  0.77912766  0.37034386    -0.15560
F3197       F  0.06321620  0.75014963  0.29234284    -0.15560
F3198       F  0.10648651  0.73928437  0.30011436    -0.13200
C3199       C  0.15832465  0.49748376  0.90955859     0.24810
C3200       C  0.17082937  0.51641524  0.90276682    -0.23290
C3201       C  0.18104498  0.52981009  0.91940964     0.19720
C3202       C  0.17826326  0.52474465  0.94220093     0.24760
C3203       C  0.16543146  0.50608975  0.94882065    -0.23240
C3204       C  0.15590518  0.49228790  0.93223077     0.19660
F3205       F  0.14412740  0.47362450  0.93800374    -0.13200
F3206       F  0.14868168  0.48356689  0.89431064    -0.15560
F3207       F  0.18740483  0.53860481  0.95779075    -0.15560
F3208       F  0.19350169  0.54802960  0.91373741    -0.13200
C3209       C  0.17070123  0.37707404  0.76852029     0.24810
C3210       C  0.18573958  0.39381384  0.76120131    -0.23290
C3211       C  0.20646112  0.38721702  0.75208279     0.19720
C3212       C  0.21185205  0.36456870  0.75008679     0.24760
C3213       C  0.19668201  0.34791172  0.75694129    -0.23240
C3214       C  0.17612523  0.35429652  0.76632770     0.19660
F3215       F  0.16095389  0.33848790  0.77253975    -0.13200
F3216       F  0.15059193  0.38269377  0.77741603    -0.15560
F3217       F  0.23201018  0.35883408  0.74133124    -0.15560
F3218       F  0.22191866  0.40264826  0.74559123    -0.13200
C3219       C  0.31187111  0.50257520  0.56757570     0.24810
C3220       C  0.30144273  0.51001757  0.58740402    -0.23290
C3221       C  0.31433797  0.52201311  0.60330382     0.19720
C3222       C  0.33723566  0.52546093  0.59990758     0.24760
C3223       C  0.34743588  0.51789135  0.58018793    -0.23240
C3224       C  0.33456451  0.50678239  0.56389971     0.19660
F3225       F  0.34427687  0.49909406  0.54478231    -0.13200
F3226       F  0.30045027  0.49026894  0.55220604    -0.15560
F3227       F  0.34938747  0.53641583  0.61572252    -0.15560
F3228       F  0.30477389  0.53054821  0.62212525    -0.13200
C3229       C  0.25555480  0.46863549  0.65430221     0.24810
C3230       C  0.24445443  0.48614713  0.64301335    -0.23290
C3231       C  0.22986193  0.50011798  0.65505406     0.19720
C3232       C  0.22673840  0.49691635  0.67804900     0.24760
C3233       C  0.23805791  0.47967825  0.68931648    -0.23240
C3234       C  0.25228852  0.46537463  0.67735247     0.19660
F3235       F  0.26315458  0.44850389  0.68802865    -0.13200
F3236       F  0.26964678  0.45483178  0.64299615    -0.15560
F3237       F  0.21288167  0.51088139  0.68947046    -0.15560
F3238       F  0.21943855  0.51751057  0.64475100    -0.13200
C3239       C  0.18065550  0.39148246  0.54535451     0.24810
C3240       C  0.16288988  0.40287375  0.55573085    -0.23290
C3241       C  0.14777538  0.39060058  0.56928008     0.19720
C3242       C  0.14934543  0.36725567  0.57086224     0.24760
C3243       C  0.16634812  0.35594649  0.55947866    -0.23240
C3244       C  0.18239928  0.36816153  0.54733279     0.19660
F3245       F  0.19922310  0.35732101  0.53656743    -0.13200
F3246       F  0.19542941  0.40263670  0.53210005    -0.15560
F3247       F  0.13387033  0.35562948  0.58285486    -0.15560
F3248       F  0.13102428  0.40116933  0.58043221    -0.13200
C3249       C  0.20406876  0.52253587  0.43693887     0.24810
C3250       C  0.19305669  0.53960800  0.44880758    -0.23290
C3251       C  0.17707071  0.55289736  0.43762953     0.19720
C3252       C  0.17265356  0.54954052  0.41482646     0.24760
C3253       C  0.18398698  0.53276275  0.40301263    -0.23240
C3254       C  0.19953410  0.51914452  0.41419256     0.19660
F3255       F  0.21082480  0.50297174  0.40283258    -0.13200
F3256       F  0.21997354  0.50989468  0.44706595    -0.15560
F3257       F  0.15752486  0.56274528  0.40424314    -0.15560
F3258       F  0.16586126  0.56924589  0.44880806    -0.13200
C3259       C  0.48428245  0.39249542  0.75384188     0.24810
C3260       C  0.46354719  0.40285309  0.75773497    -0.23290
C3261       C  0.44484069  0.38961452  0.76271496     0.19720
C3262       C  0.44654645  0.36627330  0.76295113     0.24760
C3263       C  0.46708687  0.35572717  0.75836696    -0.23240
C3264       C  0.48613372  0.36901050  0.75450199     0.19660
F3265       F  0.50615869  0.35925939  0.75022943    -0.13200
F3266       F  0.50243637  0.40510301  0.74846806    -0.15560
F3267       F  0.42802055  0.35391067  0.76764486    -0.15560
F3268       F  0.42463427  0.39932211  0.76622322    -0.13200
C3269       C  0.46011284  0.44996251  0.68310169     0.24810
C3270       C  0.44628027  0.45924706  0.69978274    -0.23290
C3271       C  0.42746149  0.47167965  0.69319151     0.19720
C3272       C  0.42248664  0.47457437  0.67037561     0.24760
C3273       C  0.43613889  0.46489032  0.65364609    -0.23240
C3274       C  0.45502255  0.45250727  0.66042205     0.19660
F3275       F  0.46912737  0.44326841  0.64514347    -0.13200
F3276       F  0.47893922  0.43861584  0.68874986    -0.15560
F3277       F  0.40420158  0.48675584  0.66475270    -0.15560
F3278       F  0.41350032  0.48051500  0.70882161    -0.13200
C3279       C  0.34006117  0.55026873  0.79981652     0.24810
C3280       C  0.35656950  0.53998311  0.78648344    -0.23290
C3281       C  0.34984790  0.52614886  0.76861104     0.19720
C3282       C  0.32708322  0.52309695  0.76388686     0.24760
C3283       C  0.31055871  0.53406888  0.77681039    -0.23240
C3284       C  0.31747580  0.54767373  0.79487474     0.19660
F3285       F  0.30242824  0.55815564  0.80833034    -0.13200
F3286       F  0.34578379  0.56275501  0.81801157    -0.15560
F3287       F  0.32132299  0.50943510  0.74659180    -0.15560
F3288       F  0.36527689  0.51604004  0.75533066    -0.13200
C3289       C  0.33593119  0.54597263  0.07345292     0.24810
C3290       C  0.34846306  0.53466444  0.05717170    -0.23290
C3291       C  0.33750978  0.52295958  0.03987405     0.19720
C3292       C  0.31424287  0.52352698  0.03818026     0.24760
C3293       C  0.30174846  0.53603016  0.05362763    -0.23240
C3294       C  0.31267637  0.54681978  0.07158699     0.19660
F3295       F  0.30083752  0.55919038  0.08658109    -0.13200
F3296       F  0.34626984  0.55724980  0.09030763    -0.15560
F3297       F  0.30405518  0.51322694  0.02062103    -0.15560
F3298       F  0.34946439  0.51144331  0.02429875    -0.13200
C3299       C  0.39994059  0.50388218  0.16074666     0.24810
C3300       C  0.41357338  0.48726279  0.15097913    -0.23290
C3301       C  0.42615386  0.47323774  0.16532078     0.19720
C3302       C  0.42458231  0.47548800  0.18876967     0.24760
C3303       C  0.41068181  0.49195908  0.19824876    -0.23240
C3304       C  0.39897354  0.50648752  0.18387757     0.19660
F3305       F  0.38656720  0.52361175  0.19225882    -0.13200
F3306       F  0.38755182  0.51806893  0.14801246    -0.15560
F3307       F  0.43627253  0.46131324  0.20213591    -0.15560
F3308       F  0.44008285  0.45744641  0.15676310    -0.13200
C3309       C  0.50613575  0.53205529  0.92906213     0.24810
C3310       C  0.49383922  0.51579326  0.94078527    -0.23290
C3311       C  0.48189770  0.49934155  0.92889215     0.19720
C3312       C  0.48296686  0.49850408  0.90552925     0.24760
C3313       C  0.49626335  0.51395386  0.89372873    -0.23240
C3314       C  0.50754820  0.53100280  0.90561424     0.19660
F3315       F  0.52050331  0.54611287  0.89452442    -0.13200
F3316       F  0.51755908  0.54820103  0.94034678    -0.15560
F3317       F  0.47222200  0.48167771  0.89454446    -0.15560
F3318       F  0.46951261  0.48377101  0.94003051    -0.13200
C3319       C  0.42244567  0.64199656  0.00357694     0.24810
C3320       C  0.44300499  0.65295672  0.00686472    -0.23290
C3321       C  0.46212415  0.64032132  0.01148078     0.19720
C3322       C  0.46100561  0.61697266  0.01196585     0.24760
C3323       C  0.44064138  0.60578110  0.00799700    -0.23240
C3324       C  0.42118233  0.61846904  0.00450048     0.19660
F3325       F  0.40129422  0.60810427  0.00088970    -0.13200
F3326       F  0.40388747  0.65404079  0.99860292    -0.15560
F3327       F  0.47994194  0.60525284  0.01633044    -0.15560
F3328       F  0.48217307  0.65064233  0.01436169    -0.13200
C3329       C  0.34479686  0.72274197  0.10024524     0.24810
C3330       C  0.35665881  0.73912648  0.08793474    -0.23290
C3331       C  0.34494580  0.75334553  0.07333626     0.19720
C3332       C  0.32168013  0.75210093  0.07207625     0.24760
C3333       C  0.30981822  0.73648600  0.08517267    -0.23240
C3334       C  0.32148966  0.72134234  0.09874207     0.19660
F3335       F  0.31026645  0.70597397  0.11127504    -0.13200
F3336       F  0.35576898  0.70863903  0.11430008    -0.15560
F3337       F  0.31060056  0.76654377  0.05844473    -0.15560
F3338       F  0.35587183  0.76943987  0.06144975    -0.13200
C3339       C  0.43098693  0.75148479  0.15541942     0.24810
C3340       C  0.41297823  0.76161132  0.14425060    -0.23290
C3341       C  0.39873705  0.77611862  0.15636801     0.19720
C3342       C  0.40205422  0.77979447  0.17932175     0.24760
C3343       C  0.41989526  0.76945794  0.19033677    -0.23240
C3344       C  0.43447502  0.75551492  0.17824558     0.19660
F3345       F  0.45169809  0.74517073  0.18880684    -0.13200
F3346       F  0.44456992  0.73685046  0.14453384    -0.15560
F3347       F  0.38792555  0.79343403  0.19077320    -0.15560
F3348       F  0.38158384  0.78672591  0.14596406    -0.13200
C3349       C  0.98198031  0.37943694  0.57816332     0.24810
C3350       C  0.96539524  0.39374435  0.58709175    -0.23290
C3351       C  0.94601863  0.38393721  0.59645036     0.19720
C3352       C  0.94353940  0.36072954  0.59734671     0.24760
C3353       C  0.96038839  0.34649394  0.58928732    -0.23240
C3354       C  0.97949705  0.35597640  0.57933619     0.19660
F3355       F  0.99607213  0.34256946  0.57150781    -0.13200
F3356       F  0.00073306  0.38805165  0.56861767    -0.15560
F3357       F  0.92452251  0.35205650  0.60635370    -0.15560
F3358       F  0.92907120  0.39671029  0.60456986    -0.13200
C3359       C  0.83942923  0.55266804  0.54080887     0.24810
C3360       C  0.84946290  0.53977991  0.55785525    -0.23290
C3361       C  0.83545785  0.52783172  0.57285273     0.19720
C3362       C  0.81207699  0.52937912  0.57113250     0.24760
C3363       C  0.80237929  0.54263115  0.55427656    -0.23240
C3364       C  0.81636999  0.55360189  0.53878913     0.19660
F3365       F  0.80764039  0.56530239  0.52134733    -0.13200
F3366       F  0.85181754  0.56439637  0.52569019    -0.15560
F3367       F  0.79899658  0.51832939  0.58614602    -0.15560
F3368       F  0.84427313  0.51455456  0.58907558    -0.13200
C3369       C  0.06962686  0.45365623  0.55473563     0.24810
C3370       C  0.05949950  0.45996339  0.53433907    -0.23290
C3371       C  0.07330575  0.46709485  0.51643970     0.19720
C3372       C  0.09667547  0.46684753  0.51865645     0.24760
C3373       C  0.10647346  0.45976126  0.53881864    -0.23240
C3374       C  0.09273804  0.45367889  0.55691066     0.19660
F3375       F  0.10186941  0.44703805  0.57667679    -0.13200
F3376       F  0.05724131  0.44759667  0.57287255    -0.15560
F3377       F  0.10970257  0.47255133  0.50087910    -0.15560
F3378       F  0.06428730  0.47372715  0.49664580    -0.13200
C3379       C  0.89973295  0.50822069  0.68469307     0.24810
C3380       C  0.91072127  0.49313022  0.69905852    -0.23290
C3381       C  0.92379805  0.47597968  0.68958331     0.19720
C3382       C  0.92532981  0.47366609  0.66615254     0.24760
C3383       C  0.91355718  0.48834047  0.65178413    -0.23240
C3384       C  0.90074097  0.50564267  0.66153305     0.19660
F3385       F  0.88918546  0.52048339  0.64875408    -0.13200
F3386       F  0.88795063  0.52579038  0.69311332    -0.15560
F3387       F  0.93837834  0.45710634  0.65764152    -0.15560
F3388       F  0.93463438  0.46113163  0.70295175    -0.13200
C3389       C  0.97356987  0.36910303  0.78820344     0.24810
C3390       C  0.98906775  0.35652028  0.77577223    -0.23290
C3391       C  0.00831194  0.36699581  0.76742865     0.19720
C3392       C  0.01195296  0.38991732  0.77134905     0.24760
C3393       C  0.99672433  0.40253806  0.78438581    -0.23240
C3394       C  0.97744817  0.39181583  0.79270605     0.19660
F3395       F  0.96285182  0.40298382  0.80609310    -0.13200
F3396       F  0.95505197  0.35907128  0.79682185    -0.15560
F3397       F  0.03031418  0.39979602  0.76224994    -0.15560
F3398       F  0.02343282  0.35508940  0.75533829    -0.13200
C3399       C  0.06147954  0.45353100  0.82829476     0.24810
C3400       C  0.05193908  0.46006626  0.80776926    -0.23290
C3401       C  0.06544985  0.46979347  0.79115551     0.19720
C3402       C  0.08832706  0.47251103  0.79479094     0.24760
C3403       C  0.09792250  0.46589923  0.81523786    -0.23240
C3404       C  0.08435257  0.45674795  0.83214378     0.19660
F3405       F  0.09337085  0.45034149  0.85200967    -0.13200
F3406       F  0.04867083  0.44377439  0.84440072    -0.15560
F3407       F  0.10116330  0.48174175  0.77838263    -0.15560
F3408       F  0.05657323  0.47593010  0.77112626    -0.13200
C3409       C  0.98538100  0.53737992  0.92728749     0.24810
C3410       C  0.96579375  0.53868557  0.94036779    -0.23290
C3411       C  0.94494974  0.53965233  0.92947685     0.19720
C3412       C  0.94374041  0.54028102  0.90616790     0.24760
C3413       C  0.96324686  0.54001457  0.89317212    -0.23240
C3414       C  0.98409953  0.53827599  0.90376992     0.19660
F3415       F  0.00315504  0.53839847  0.89140590    -0.13200
F3416       F  0.00571941  0.53615816  0.93723585    -0.15560
F3417       F  0.92343664  0.54195996  0.89617778    -0.15560
F3418       F  0.92558708  0.53980198  0.94138419    -0.13200
C3419       C  0.09653942  0.47808728  0.01749382     0.24810
C3420       C  0.10602794  0.49591059  0.00528726    -0.23290
C3421       C  0.09189386  0.51164241  0.99504701     0.19720
C3422       C  0.06883906  0.50898276  0.99574112     0.24760
C3423       C  0.05905891  0.49077140  0.00734517    -0.23240
C3424       C  0.07323279  0.47557764  0.01863409     0.19660
F3425       F  0.06465769  0.45816361  0.03058600    -0.13200
F3426       F  0.10979803  0.46266154  0.02760402    -0.15560
F3427       F  0.05620775  0.52453585  0.98500153    -0.15560
F3428       F  0.10050075  0.52965942  0.98399416    -0.13200
C3429       C  0.00593251  0.38592493  0.04117162     0.24810
C3430       C  0.99443603  0.39575266  0.05935952    -0.23290
C3431       C  0.98328235  0.38142378  0.07467695     0.19720
C3432       C  0.98434645  0.35793856  0.07219347     0.24760
C3433       C  0.99632049  0.34845235  0.05426765    -0.23240
C3434       C  0.00648945  0.36276079  0.03851522     0.19660
F3435       F  0.01722463  0.35420877  0.02033780    -0.13200
F3436       F  0.01658115  0.39862241  0.02551403    -0.15560
F3437       F  0.97424589  0.34452598  0.08759632    -0.15560
F3438       F  0.97144262  0.39002784  0.09209757    -0.13200
C3439       C  0.06855847  0.95248153  0.05629973     0.24810
C3440       C  0.05927134  0.96256016  0.03700822    -0.23290
C3441       C  0.07381261  0.97294573  0.02144607     0.19720
C3442       C  0.09703969  0.97225331  0.02463564     0.24760
C3443       C  0.10603049  0.96140912  0.04349058    -0.23240
C3444       C  0.09153021  0.95216008  0.05954116     0.19660
F3445       F  0.09974832  0.94214472  0.07826662    -0.13200
F3446       F  0.05551974  0.94282733  0.07230185    -0.15560
F3447       F  0.11074046  0.98123152  0.00882006    -0.15560
F3448       F  0.06568203  0.98336977  0.00293909    -0.13200
C3449       C  0.95814133  0.11808386  0.01795328     0.24810
C3450       C  0.94061057  0.10646158  0.00737887    -0.23290
C3451       C  0.92372421  0.11856698  0.99654161     0.19720
C3452       C  0.92515094  0.14203247  0.99511231     0.24760
C3453       C  0.94314988  0.15360768  0.00506024    -0.23240
C3454       C  0.95930526  0.14149255  0.01696856     0.19660
F3455       F  0.97698375  0.15223249  0.02639986    -0.13200
F3456       F  0.97438177  0.10664250  0.02894859    -0.15560
F3457       F  0.90944893  0.15344218  0.98334396    -0.15560
F3458       F  0.90658124  0.10762282  0.98639368    -0.13200
C3459       C  0.92416834  0.97330913  0.16540162     0.24810
C3460       C  0.91291819  0.98848054  0.15110860    -0.23290
C3461       C  0.90151563  0.00672362  0.16096337     0.19720
C3462       C  0.90108941  0.00952068  0.18413472     0.24760
C3463       C  0.91136066  0.99387568  0.19841414    -0.23240
C3464       C  0.92327153  0.97593810  0.18885391     0.19660
F3465       F  0.93341678  0.96057117  0.20218636    -0.13200
F3466       F  0.93595473  0.95586506  0.15679840    -0.15560
F3467       F  0.89033672  0.02767459  0.19271096    -0.15560
F3468       F  0.89077111  0.02224615  0.14828009    -0.13200
C3469       C  0.92958724  0.64133941  0.04673172     0.24810
C3470       C  0.91248680  0.65305373  0.03570029    -0.23290
C3471       C  0.89766608  0.64108426  0.02163735     0.19720
C3472       C  0.89898798  0.61771656  0.01990167     0.24760
C3473       C  0.91531373  0.60606638  0.03188110    -0.23240
C3474       C  0.93097830  0.61798276  0.04478952     0.19660
F3475       F  0.94709588  0.60682907  0.05624724    -0.13200
F3476       F  0.94398717  0.65224968  0.06055066    -0.15560
F3477       F  0.88385328  0.60640073  0.00724684    -0.15560
F3478       F  0.88140527  0.65199814  0.01015843    -0.13200
C3479       C  0.08914342  0.74388471  0.99372275     0.24810
C3480       C  0.09937543  0.76129395  0.00604331    -0.23290
C3481       C  0.08552655  0.77655494  0.01777699     0.19720
C3482       C  0.06211823  0.77480098  0.01647181     0.24760
C3483       C  0.05221545  0.75765760  0.00368021    -0.23240
C3484       C  0.06604466  0.74187640  0.99299039     0.19660
F3485       F  0.05710173  0.72425382  0.98163672    -0.13200
F3486       F  0.10137280  0.72843566  0.98233245    -0.15560
F3487       F  0.04920623  0.79012761  0.02721035    -0.15560
F3488       F  0.09452217  0.79315931  0.03051727    -0.13200
C3489       C  0.95430834  0.85905087  0.06991437     0.24810
C3490       C  0.96439313  0.84764543  0.08788789    -0.23290
C3491       C  0.97740659  0.86002579  0.10335083     0.19720
C3492       C  0.97883786  0.88342763  0.10183313     0.24760
C3493       C  0.96776522  0.89473921  0.08458378    -0.23240
C3494       C  0.95608938  0.88242616  0.06825632     0.19660
F3495       F  0.94558401  0.89320792  0.05121221    -0.13200
F3496       F  0.94150310  0.84783188  0.05482077    -0.15560
F3497       F  0.99043401  0.89509318  0.11756406    -0.15560
F3498       F  0.98821630  0.84948735  0.12035662    -0.13200
C3499       C  0.92341586  0.77888742  0.15010319     0.24810
C3500       C  0.94313411  0.78983583  0.14337676    -0.23290
C3501       C  0.95827593  0.79720119  0.15979215     0.19720
C3502       C  0.95365678  0.79423702  0.18249767     0.24760
C3503       C  0.93378561  0.78354414  0.18947965    -0.23240
C3504       C  0.91878078  0.77570044  0.17298606     0.19660
F3505       F  0.89949920  0.76524048  0.17895859    -0.13200
F3506       F  0.90836875  0.77188701  0.13457363    -0.15560
F3507       F  0.96914652  0.80128079  0.19758521    -0.15560
F3508       F  0.97783526  0.80714931  0.15377570    -0.13200
C3509       C  0.94656683  0.63095053  0.81433935     0.24810
C3510       C  0.93402568  0.64306078  0.83015933    -0.23290
C3511       C  0.92582706  0.63212682  0.84924765     0.19720
C3512       C  0.93006716  0.60923451  0.85246635     0.24760
C3513       C  0.94339880  0.59711467  0.83702686    -0.23240
C3514       C  0.95145602  0.60827333  0.81783475     0.19660
F3515       F  0.96496837  0.59759902  0.80297770    -0.13200
F3516       F  0.95491008  0.64142222  0.79588720    -0.15560
F3517       F  0.92101817  0.59891793  0.87066643    -0.15560
F3518       F  0.91362879  0.64357532  0.86466715    -0.13200
C3519       C  0.00692182  0.72426168  0.91247765     0.24810
C3520       C  0.98696818  0.73073715  0.90231468    -0.23290
C3521       C  0.97056069  0.74180400  0.91503335     0.19720
C3522       C  0.97438408  0.74706430  0.93757835     0.24760
C3523       C  0.99445921  0.74065283  0.94799333    -0.23240
C3524       C  0.01041572  0.72858174  0.93523708     0.19660
F3525       F  0.02940293  0.72070676  0.94477217    -0.13200
F3526       F  0.02291966  0.71353674  0.90040884    -0.15560
F3527       F  0.95887858  0.75930076  0.94881074    -0.15560
F3528       F  0.95120412  0.74847184  0.90526481    -0.13200
C3529       C  0.95211692  0.88977720  0.76960574     0.24810
C3530       C  0.96623344  0.90225279  0.75546664    -0.23290
C3531       C  0.98419899  0.89139985  0.74471209     0.19720
C3532       C  0.98787281  0.86838472  0.74798064     0.24760
C3533       C  0.97344561  0.85594380  0.76175801    -0.23240
C3534       C  0.95564474  0.86677604  0.77263030     0.19660
F3535       F  0.94149578  0.85493772  0.78600015    -0.13200
F3536       F  0.93432760  0.89967420  0.77968459    -0.15560
F3537       F  0.00520862  0.85817743  0.73744413    -0.15560
F3538       F  0.99804146  0.90310095  0.73092075    -0.13200
C3539       C  0.93142609  0.12707190  0.82756553     0.24810
C3540       C  0.91888046  0.14367431  0.81628323    -0.23290
C3541       C  0.90286655  0.13664971  0.80046551     0.19720
C3542       C  0.89979806  0.11391830  0.79575579     0.24760
C3543       C  0.91189278  0.09727325  0.80737625    -0.23240
C3544       C  0.92780629  0.10416917  0.82331867     0.19660
F3545       F  0.93967042  0.08880180  0.83512265    -0.13200
F3546       F  0.94740227  0.13287543  0.84264205    -0.15560
F3547       F  0.88531391  0.10831220  0.77915390    -0.15560
F3548       F  0.89044452  0.15175007  0.78886883    -0.13200
C3549       C  0.98427288  0.02752281  0.90306771     0.24810
C3550       C  0.99607130  0.00980630  0.89303838    -0.23290
C3551       C  0.00635275  0.99377075  0.90687380     0.19720
C3552       C  0.00619242  0.99601510  0.93008595     0.24760
C3553       C  0.99492203  0.01401412  0.94045639    -0.23240
C3554       C  0.98356319  0.02956459  0.92660522     0.19660
F3555       F  0.97179252  0.04675520  0.93572521    -0.13200
F3556       F  0.97394775  0.04310659  0.89013615    -0.15560
F3557       F  0.01700902  0.98016623  0.94229494    -0.15560
F3558       F  0.01678897  0.97569725  0.89779071    -0.13200
C3559       C  0.71158563  0.11884431  0.81487238     0.24810
C3560       C  0.72469776  0.10653654  0.82999890    -0.23290
C3561       C  0.73398870  0.11731401  0.84865264     0.19720
C3562       C  0.73019278  0.14024686  0.85217329     0.24760
C3563       C  0.71641983  0.15258370  0.83740667    -0.23240
C3564       C  0.70728189  0.14159953  0.81862369     0.19660
F3565       F  0.69327687  0.15254325  0.80448410    -0.13200
F3566       F  0.70217441  0.10851950  0.79688303    -0.15560
F3567       F  0.74002710  0.15039576  0.87002351    -0.15560
F3568       F  0.74674622  0.10564756  0.86338824    -0.13200
C3569       C  0.82280204  0.01615684  0.78808563     0.24810
C3570       C  0.81027301  0.03257576  0.77682432    -0.23290
C3571       C  0.82062584  0.05242181  0.76980306     0.19720
C3572       C  0.84335903  0.05582785  0.77388896     0.24760
C3573       C  0.85591048  0.03983036  0.78604702    -0.23240
C3574       C  0.84535820  0.01984723  0.79294572     0.19660
F3575       F  0.85649312  0.00435865  0.80530491    -0.13200
F3576       F  0.81285504  0.99694864  0.79532283    -0.15560
F3577       F  0.85310551  0.07478976  0.76582421    -0.15560
F3578       F  0.80875599  0.06840217  0.75883575    -0.13200
C3579       C  0.65161681  0.99722261  0.93214938     0.24810
C3580       C  0.66247743  0.01001468  0.94878609    -0.23290
C3581       C  0.67671768  0.02758151  0.94204222     0.19720
C3582       C  0.67988314  0.03232537  0.91918616     0.24760
C3583       C  0.66866287  0.01973152  0.90252604    -0.23240
C3584       C  0.65438339  0.00217933  0.90944344     0.19660
F3585       F  0.64348496  0.98914751  0.89427119    -0.13200
F3586       F  0.63863455  0.97935649  0.93781700    -0.15560
F3587       F  0.69402473  0.04924350  0.91346901    -0.15560
F3588       F  0.68727011  0.04048220  0.95755014    -0.13200
C3589       C  0.70787992  0.97849614  0.15455352     0.24810
C3590       C  0.71585625  0.95896149  0.14399382    -0.23290
C3591       C  0.72885172  0.94372368  0.15663117     0.19720
C3592       C  0.73280488  0.94743131  0.17948117     0.28280
C3593       C  0.72459298  0.96678607  0.18988335    -0.23240
C3594       C  0.71242921  0.98245221  0.17723285     0.19660
F3595       F  0.70402894  0.00113618  0.18718992    -0.13200
F3596       F  0.69470171  0.99319025  0.14330870    -0.15560
F3597       F  0.74467940  0.93218129  0.19143331    -0.15560
F3598       F  0.73772356  0.92516781  0.14686447    -0.13200
C3599       C  0.81081939  0.02819521  0.06833581     0.24810
C3600       C  0.80121541  0.04189094  0.05176850    -0.23290
C3601       C  0.81531227  0.05379808  0.03706939     0.19720
C3602       C  0.83835523  0.05317897  0.03959577     0.24760
C3603       C  0.84823596  0.03978641  0.05636101    -0.23240
C3604       C  0.83414592  0.02701347  0.07053946     0.19660
F3605       F  0.84282869  0.01329998  0.08647065    -0.13200
F3606       F  0.79767329  0.01644425  0.08275149    -0.15560
F3607       F  0.85088854  0.06578402  0.02532540    -0.15560
F3608       F  0.80671792  0.06625238  0.02005569    -0.13200
C3609       C  0.72055948  0.75709166  0.16573522     0.24810
C3610       C  0.73645074  0.76884688  0.15292415    -0.23290
C3611       C  0.75604251  0.77657483  0.16309140     0.19720
C3612       C  0.75968710  0.77270015  0.18594050     0.24760
C3613       C  0.74416639  0.76014309  0.19877801    -0.23240
C3614       C  0.72448544  0.75248813  0.18837734     0.19660
F3615       F  0.70952294  0.73963652  0.19975673    -0.13200
F3616       F  0.70163853  0.74914180  0.15597910    -0.15560
F3617       F  0.77837074  0.78137387  0.19552051    -0.15560
F3618       F  0.77150814  0.78804865  0.15094426    -0.13200
C3619       C  0.58989108  0.79416733  0.04655567     0.24810
C3620       C  0.59701106  0.78382141  0.02650474    -0.23290
C3621       C  0.58070246  0.77639029  0.01109860     0.19720
C3622       C  0.55788702  0.77964680  0.01551758     0.24760
C3623       C  0.55101564  0.79028700  0.03540379    -0.23240
C3624       C  0.56724152  0.79724119  0.05094173     0.19660
F3625       F  0.56109124  0.80682371  0.07068995    -0.13200
F3626       F  0.60478351  0.80074590  0.06243594    -0.15560
F3627       F  0.54256655  0.77299108  0.00010990    -0.15560
F3628       F  0.58679452  0.76626611  0.99162780    -0.13200
C3629       C  0.70627615  0.88459469  0.09817675     0.24810
C3630       C  0.69234024  0.90119987  0.08901908    -0.23290
C3631       C  0.67354290  0.89457359  0.07655521     0.19720
C3632       C  0.66873117  0.87172363  0.07341761     0.24760
C3633       C  0.68260136  0.85505750  0.08282161    -0.23240
C3634       C  0.70139848  0.86188949  0.09532871     0.19660
F3635       F  0.71574984  0.84665462  0.10417165    -0.13200
F3636       F  0.72512617  0.89035640  0.10947821    -0.15560
F3637       F  0.65049613  0.86598811  0.06116170    -0.15560
F3638       F  0.65960049  0.91019676  0.06775866    -0.13200
C3639       C  0.82699109  0.72794454  0.07743724     0.24810
C3640       C  0.81045131  0.71650239  0.06493647    -0.23290
C3641       C  0.81737424  0.70234539  0.04729724     0.19720
C3642       C  0.83995614  0.69974797  0.04230037     0.24760
C3643       C  0.85649994  0.71052494  0.05522342    -0.23240
C3644       C  0.84976095  0.72484191  0.07272627     0.19660
F3645       F  0.86517140  0.73540791  0.08568089    -0.13200
F3646       F  0.82124402  0.74213882  0.09429716    -0.15560
F3647       F  0.84561283  0.68679557  0.02441348    -0.15560
F3648       F  0.80233215  0.69127019  0.03430275    -0.13200
C3649       C  0.50730249  0.88272716  0.07542831     0.24810
C3650       C  0.48788545  0.89320814  0.06773745    -0.23290
C3651       C  0.47205230  0.88069464  0.05563988     0.19720
C3652       C  0.47581779  0.85807077  0.05071290     0.24760
C3653       C  0.49528515  0.84732791  0.05836048    -0.23240
C3654       C  0.51078489  0.85986024  0.07121597     0.19660
F3655       F  0.52929122  0.84997627  0.07983628    -0.13200
F3656       F  0.52278019  0.89458994  0.08713115    -0.15560
F3657       F  0.46092387  0.84706193  0.03751333    -0.15560
F3658       F  0.45334987  0.89074892  0.04764436    -0.13200
C3659       C  0.45280577  0.97538296  0.18660550     0.24810
C3660       C  0.44069335  0.95905841  0.19856476    -0.23290
C3661       C  0.42403120  0.94660573  0.18734023     0.19720
C3662       C  0.41990350  0.95014806  0.16445864     0.24760
C3663       C  0.43232275  0.96619110  0.15257086    -0.23240
C3664       C  0.44865170  0.97888458  0.16379816     0.19660
F3665       F  0.46104702  0.99427582  0.15243427    -0.13200
F3666       F  0.46941857  0.98716445  0.19673061    -0.15560
F3667       F  0.40404688  0.93776892  0.15385871    -0.15560
F3668       F  0.41186177  0.93092938  0.19854296    -0.13200
C3669       C  0.33698221  0.02721569  0.09561263     0.24810
C3670       C  0.34761726  0.01879324  0.07653767    -0.23290
C3671       C  0.33537127  0.00625737  0.06077199     0.19720
C3672       C  0.31278916  0.00143772  0.06450662     0.24760
C3673       C  0.30209615  0.00949399  0.08388969    -0.23240
C3674       C  0.31429524  0.02304045  0.09903715     0.19660
F3675       F  0.30424877  0.03224060  0.11725180    -0.13200
F3676       F  0.34857173  0.03948388  0.11088929    -0.15560
F3677       F  0.30174756  0.98802685  0.04978950    -0.15560
F3678       F  0.34561280  0.99778285  0.04228113    -0.13200
C3679       C  0.59685565  0.99614639  0.02640806     0.24810
C3680       C  0.60721152  0.98806761  0.00681141    -0.23290
C3681       C  0.59451395  0.97504312  0.99161415     0.19720
C3682       C  0.57180455  0.97107912  0.99545919     0.24760
C3683       C  0.56162031  0.97927590  0.01492251    -0.23240
C3684       C  0.57429685  0.99156346  0.03051264     0.19660
F3685       F  0.56448596  0.00007621  0.04922400    -0.13200
F3686       F  0.60819921  0.00941188  0.04102681    -0.15560
F3687       F  0.55976439  0.95919501  0.98023542    -0.15560
F3688       F  0.60409519  0.96611521  0.97298744    -0.13200
C3689       C  0.51317949  0.02217636  0.40519965     0.24810
C3690       C  0.49727956  0.00964662  0.39287545    -0.23290
C3691       C  0.47882258  0.00045864  0.40432903     0.19720
C3692       C  0.47698374  0.00274809  0.42763728     0.24760
C3693       C  0.49365064  0.01393745  0.43989646    -0.23240
C3694       C  0.51153075  0.02398006  0.42855643     0.19660
F3695       F  0.52765401  0.03504502  0.44015945    -0.13200
F3696       F  0.53064156  0.03227865  0.39466319    -0.15560
F3697       F  0.45943459  0.99308614  0.43843745    -0.15560
F3698       F  0.46332331  0.98802751  0.39326224    -0.13200
C3699       C  0.44371545  0.88375923  0.58394964     0.24810
C3700       C  0.46503906  0.89377117  0.58260881    -0.23290
C3701       C  0.48394978  0.87990948  0.58062370     0.19720
C3702       C  0.48158848  0.85646487  0.58133767     0.24760
C3703       C  0.46031153  0.84670994  0.58359712    -0.23240
C3704       C  0.44142815  0.86049268  0.58444648     0.19660
F3705       F  0.42075542  0.85133078  0.58677404    -0.13200
F3706       F  0.42494687  0.89650105  0.58476404    -0.15560
F3707       F  0.50008184  0.84332919  0.58110356    -0.15560
F3708       F  0.50470420  0.88901569  0.57910454    -0.13200
C3709       C  0.46443391  0.11480974  0.50212007     0.24810
C3710       C  0.44363240  0.10508342  0.50771695    -0.23290
C3711       C  0.42594231  0.11931514  0.51416346     0.19720
C3712       C  0.42877264  0.14274551  0.51390000     0.24760
C3713       C  0.44933823  0.15216703  0.50746325    -0.23240
C3714       C  0.46718991  0.13800183  0.50204813     0.19660
F3715       F  0.48726826  0.14677697  0.49594576    -0.13200
F3716       F  0.48237510  0.10193184  0.49681896    -0.15560
F3717       F  0.41118214  0.15622215  0.51881640    -0.15560
F3718       F  0.40576043  0.11065369  0.51999410    -0.13200
C3719       C  0.33764846  0.05450620  0.57114937     0.24810
C3720       C  0.34942339  0.03757389  0.56005715    -0.23290
C3721       C  0.33774715  0.02143555  0.54745176     0.19720
C3722       C  0.31458441  0.02297687  0.54482499     0.24760
C3723       C  0.30275533  0.04065183  0.55495000    -0.23240
C3724       C  0.31444883  0.05588463  0.56889118     0.19660
F3725       F  0.30346503  0.07255532  0.57982636    -0.13200
F3726       F  0.34869599  0.07014592  0.58347802    -0.15560
F3727       F  0.30403090  0.00809376  0.53119812    -0.15560
F3728       F  0.34898017  0.00472465  0.53684527    -0.13200
C3729       C  0.59269524  0.95069069  0.55680179     0.24810
C3730       C  0.60702838  0.95859664  0.53988642    -0.23290
C3731       C  0.59776677  0.96836467  0.52056630     0.19720
C3732       C  0.57444641  0.96933371  0.51786705     0.24760
C3733       C  0.56005620  0.96034290  0.53441817    -0.23240
C3734       C  0.56963634  0.95136002  0.55409950     0.19660
F3735       F  0.55678085  0.94329950  0.57109776    -0.13200
F3736       F  0.60113450  0.94189903  0.57603488    -0.15560
F3737       F  0.56605229  0.97866810  0.49890519    -0.15560
F3738       F  0.61125905  0.97612075  0.50394963    -0.13200
C3739       C  0.70654268  0.05296761  0.43134167     0.24810
C3740       C  0.69406937  0.04191899  0.44809904    -0.23290
C3741       C  0.67655776  0.02756500  0.44154479     0.19720
C3742       C  0.67154651  0.02448759  0.41875938     0.24760
C3743       C  0.68375583  0.03596444  0.40198691    -0.23240
C3744       C  0.70126979  0.05034722  0.40871197     0.19660
F3745       F  0.71393473  0.06152992  0.39341662    -0.13200
F3746       F  0.72434357  0.06605057  0.43680731    -0.15560
F3747       F  0.65474289  0.01019007  0.41322216    -0.15560
F3748       F  0.66392375  0.01685279  0.45717855    -0.13200
C3749       C  0.69653242  0.11449592  0.50075193     0.24810
C3750       C  0.71222641  0.09805553  0.50667283    -0.23290
C3751       C  0.73283748  0.10477659  0.51574135     0.19720
C3752       C  0.73783555  0.12764452  0.51840718     0.24760
C3753       C  0.72232272  0.14417206  0.51188664    -0.23240
C3754       C  0.70151257  0.13724573  0.50321157     0.19660
F3755       F  0.68557700  0.15244611  0.49765510    -0.13200
F3756       F  0.67621171  0.10846437  0.49258997    -0.15560
F3757       F  0.75800995  0.13357859  0.52694347    -0.15560
F3758       F  0.74844838  0.08923289  0.52122947    -0.13200
C3759       C  0.73479041  0.97077513  0.64998344     0.24810
C3760       C  0.74376568  0.99153492  0.64323669    -0.23290
C3761       C  0.74976436  0.00734821  0.65966822     0.19720
C3762       C  0.74725357  0.00242200  0.68242148     0.24760
C3763       C  0.73849551  0.98154287  0.68934970    -0.23240
C3764       C  0.73209894  0.96582925  0.67284666     0.19660
F3765       F  0.72364231  0.94551413  0.67881832    -0.13200
F3766       F  0.72938934  0.95498669  0.63446539    -0.15560
F3767       F  0.75276275  0.01849019  0.69763076    -0.15560
F3768       F  0.75800815  0.02774538  0.65361879    -0.13200
C3769       C  0.07674091  0.96533962  0.51499525     0.24810
C3770       C  0.06074333  0.98256032  0.51405755    -0.23290
C3771       C  0.06796003  0.00498563  0.51185160     0.19720
C3772       C  0.09066834  0.01003333  0.51003428     0.24760
C3773       C  0.10658444  0.99281386  0.51037921    -0.23240
C3774       C  0.09952889  0.97043568  0.51297695     0.19660
F3775       F  0.11463457  0.95348118  0.51241517    -0.13200
F3776       F  0.07025740  0.94356709  0.51696006    -0.15560
F3777       F  0.09717786  0.03174833  0.50747520    -0.15560
F3778       F  0.05302590  0.02211613  0.51188726    -0.13200
C3779       C  0.84099283  0.00066947  0.59431689     0.24810
C3780       C  0.84798651  0.01872427  0.58067870    -0.23290
C3781       C  0.83151127  0.03185537  0.56999457     0.19720
C3782       C  0.80874092  0.02718614  0.57311350     0.24760
C3783       C  0.80191046  0.00916755  0.58676264    -0.23240
C3784       C  0.81834947  0.99581831  0.59705483     0.19660
F3785       F  0.81252086  0.97762009  0.60952221    -0.13200
F3786       F  0.85602224  0.98708805  0.60459213    -0.15560
F3787       F  0.79339351  0.04066125  0.56320551    -0.15560
F3788       F  0.83733360  0.04930558  0.55652912    -0.13200
C3789       C  0.92912203  0.12248908  0.51125885     0.24810
C3790       C  0.91882696  0.10606703  0.52495532    -0.23290
C3791       C  0.90516898  0.11327652  0.54282770     0.19720
C3792       C  0.90208591  0.13608056  0.54701269     0.24760
C3793       C  0.91209554  0.15244962  0.53320993    -0.23240
C3794       C  0.92571942  0.14543996  0.51532808     0.19660
F3795       F  0.93543737  0.16077147  0.50154495    -0.13200
F3796       F  0.94252737  0.11643153  0.49390430    -0.15560
F3797       F  0.88970602  0.14216317  0.56512853    -0.15560
F3798       F  0.89530779  0.09833123  0.55694833    -0.13200
C3799       C  0.98269866  0.02800606  0.40016860     0.24810
C3800       C  0.96347599  0.03976311  0.39355377    -0.23290
C3801       C  0.94911561  0.04829800  0.41016343     0.19720
C3802       C  0.95410963  0.04575343  0.43285325     0.24760
C3803       C  0.97347931  0.03417859  0.43966902    -0.23240
C3804       C  0.98762650  0.02514939  0.42300060     0.19660
F3805       F  0.00637273  0.01374454  0.42871574    -0.13200
F3806       F  0.99708249  0.01987501  0.38454366    -0.15560
F3807       F  0.93946592  0.05416597  0.44810094    -0.15560
F3808       F  0.92994461  0.05898886  0.40440298    -0.13200
C3809       C  0.92492977  0.94664932  0.66318918     0.24810
C3810       C  0.93426770  0.96530530  0.65236055    -0.23290
C3811       C  0.94749818  0.98044624  0.66463079     0.19720
C3812       C  0.95179200  0.97676492  0.68739113     0.24760
C3813       C  0.94259051  0.95800702  0.69841579    -0.23240
C3814       C  0.92879686  0.94315797  0.68611394     0.19660
F3815       F  0.91897821  0.92528623  0.69631361    -0.13200
F3816       F  0.91200638  0.93192319  0.65160183    -0.15560
F3817       F  0.96581062  0.99097054  0.69833257    -0.15560
F3818       F  0.95700163  0.99840699  0.65427031    -0.13200
C3819       C  0.97900157  0.69388579  0.43605560     0.24810
C3820       C  0.96580908  0.70904600  0.44860286    -0.23290
C3821       C  0.95776470  0.72851975  0.43800767     0.19720
C3822       C  0.96248720  0.73252336  0.41538022     0.24760
C3823       C  0.97488553  0.71695794  0.40282027    -0.23240
C3824       C  0.98313233  0.69764137  0.41323894     0.19660
F3825       F  0.99517467  0.68246254  0.40132192    -0.13200
F3826       F  0.98792805  0.67540320  0.44587566    -0.15560
F3827       F  0.95401680  0.75113299  0.40537769    -0.15560
F3828       F  0.94436852  0.74311419  0.44917451    -0.13200
C3829       C  0.95949396  0.64013858  0.51672312     0.24810
C3830       C  0.94331616  0.65204696  0.50461575    -0.23290
C3831       C  0.92563123  0.64023929  0.49439580     0.19720
C3832       C  0.92454239  0.61675154  0.49577483     0.24760
C3833       C  0.94147499  0.60488249  0.50681690    -0.23240
C3834       C  0.95867693  0.61673207  0.51764773     0.19660
F3835       F  0.97488818  0.60552515  0.52892598    -0.13200
F3836       F  0.97687345  0.65110040  0.52646170    -0.15560
F3837       F  0.90764706  0.60557076  0.48546815    -0.15560
F3838       F  0.90987052  0.65144925  0.48251800    -0.13200
C3839       C  0.92664401  0.77625728  0.64995648     0.24810
C3840       C  0.91300603  0.75822214  0.64324872    -0.23290
C3841       C  0.90266484  0.74494442  0.65982367     0.19720
C3842       C  0.90530784  0.74993508  0.68252478     0.24760
C3843       C  0.91888260  0.76807405  0.68939329    -0.23240
C3844       C  0.92966156  0.78107225  0.67276313     0.19660
F3845       F  0.94312495  0.79853442  0.67845855    -0.13200
F3846       F  0.93661112  0.78964336  0.63443805    -0.15560
F3847       F  0.89492232  0.73647735  0.69772116    -0.15560
F3848       F  0.89019393  0.72674829  0.65406742    -0.13200
C3849       C  0.97542058  0.85690604  0.54975213     0.24810
C3850       C  0.99537324  0.84659531  0.55672011    -0.23290
C3851       C  0.01117944  0.85959590  0.56872505     0.19720
C3852       C  0.00758748  0.88247559  0.57260634     0.24760
C3853       C  0.98773282  0.89254781  0.56557712    -0.23240
C3854       C  0.97153655  0.87958209  0.55445247     0.19660
F3855       F  0.95233485  0.88922246  0.54717509    -0.13200
F3856       F  0.96012061  0.84542701  0.53745214    -0.15560
F3857       F  0.02339490  0.89475503  0.58340737    -0.15560
F3858       F  0.03012080  0.85015925  0.57687166    -0.13200
C3859       C  0.71103302  0.20692128  0.90944827     0.24810
C3860       C  0.69376030  0.20926512  0.89375313    -0.23290
C3861       C  0.67210767  0.21433164  0.90126809     0.19720
C3862       C  0.66779008  0.21689411  0.92429107     0.24760
C3863       C  0.68506937  0.21418713  0.94007792    -0.23240
C3864       C  0.70677328  0.20933545  0.93234601     0.19660
F3865       F  0.72411143  0.20762492  0.94690989    -0.13200
F3866       F  0.73214187  0.20228918  0.90250133    -0.15560
F3867       F  0.64666167  0.22144649  0.93117868    -0.15560
F3868       F  0.65506759  0.21606462  0.88638093    -0.13200
C3869       C  0.72968522  0.12610255  0.01449844     0.24810
C3870       C  0.73762108  0.14280319  0.02928949    -0.23290
C3871       C  0.74685856  0.13613206  0.04998533     0.19720
C3872       C  0.74848234  0.11345237  0.05552598     0.24760
C3873       C  0.74123799  0.09680814  0.04046845    -0.23240
C3874       C  0.73157773  0.10330961  0.02001821     0.19660
F3875       F  0.72492389  0.08758589  0.00492761    -0.13200
F3876       F  0.72052788  0.13175719  0.99446475    -0.15560
F3877       F  0.75744237  0.10767453  0.07563568    -0.15560
F3878       F  0.75393300  0.15152932  0.06523454    -0.13200
C3879       C  0.81727095  0.25049312  0.09303236     0.24810
C3880       C  0.81036416  0.23105119  0.08140191    -0.23290
C3881       C  0.82688279  0.21664038  0.07257017     0.19720
C3882       C  0.84964548  0.22148981  0.07549310     0.24760
C3883       C  0.85635696  0.24085074  0.08719458    -0.23240
C3884       C  0.83991578  0.25534907  0.09575408     0.19660
F3885       F  0.84580824  0.27459543  0.10648899    -0.13200
F3886       F  0.80216082  0.26538010  0.10121243    -0.15560
F3887       F  0.86511242  0.20694330  0.06740596    -0.15560
F3888       F  0.82107666  0.19773075  0.06124607    -0.13200
C3889       C  0.39792638  0.13237757  0.32073458     0.24810
C3890       C  0.41606970  0.14362203  0.31107821    -0.23290
C3891       C  0.43266438  0.13134262  0.29985870     0.19720
C3892       C  0.43052871  0.10809968  0.29717918     0.24760
C3893       C  0.41185191  0.09674480  0.30602638    -0.23240
C3894       C  0.39599503  0.10906748  0.31858114     0.19660
F3895       F  0.37831423  0.09859591  0.32836714    -0.13200
F3896       F  0.38181274  0.14404202  0.33172061    -0.15560
F3897       F  0.44595920  0.09703171  0.28469423    -0.15560
F3898       F  0.45040435  0.14209227  0.29049311    -0.13200
C3899       C  0.47968361  0.39085860  0.30006989     0.24810
C3900       C  0.49440549  0.40268121  0.28601775    -0.23290
C3901       C  0.50702570  0.39079793  0.26993823     0.19720
C3902       C  0.50569883  0.36737035  0.26867113     0.24760
C3903       C  0.49193400  0.35557958  0.28359168    -0.23240
C3904       C  0.47855561  0.36743055  0.29892861     0.19660
F3905       F  0.46482898  0.35618943  0.31322398    -0.13200
F3906       F  0.46755488  0.40183957  0.31588481    -0.15560
F3907       F  0.51859494  0.35614788  0.25366646    -0.15560
F3908       F  0.52130188  0.40188589  0.25607760    -0.13200
C3909       C  0.44629595  0.20237849  0.41217940     0.24810
C3910       C  0.46637462  0.21031563  0.40251169    -0.23290
C3911       C  0.48317694  0.21874315  0.41685440     0.19720
C3912       C  0.48027374  0.21825136  0.44026729     0.24760
C3913       C  0.46050571  0.20956223  0.44960826    -0.23240
C3914       C  0.44343223  0.20214581  0.43532838     0.19660
F3915       F  0.42399241  0.19404294  0.44394610    -0.13200
F3916       F  0.42910599  0.19489971  0.39932056    -0.15560
F3917       F  0.49710698  0.22528887  0.45379943    -0.15560
F3918       F  0.50258314  0.22694739  0.40832958    -0.13200
C3919       C  0.67446284  0.22227160  0.40072670     0.24810
C3920       C  0.66338989  0.24197064  0.39411422    -0.23290
C3921       C  0.65529234  0.25663556  0.41071493     0.19720
C3922       C  0.65780318  0.25159598  0.43341857     0.24760
C3923       C  0.66880962  0.23182969  0.44021873    -0.23240
C3924       C  0.67722502  0.21726645  0.42355741     0.19660
F3925       F  0.68793176  0.19804524  0.42929762    -0.13200
F3926       F  0.68203331  0.20753647  0.38510097    -0.15560
F3927       F  0.65004969  0.26660943  0.44870059    -0.15560
F3928       F  0.64515601  0.27617500  0.40492343    -0.13200
C3929       C  0.59611127  0.27901044  0.34643403     0.24810
C3930       C  0.60730414  0.26068818  0.33658603    -0.23290
C3931       C  0.59493691  0.24436080  0.32503392     0.19720
C3932       C  0.57164946  0.24568915  0.32432241     0.24760
C3933       C  0.56040844  0.26355614  0.33482590    -0.23240
C3934       C  0.57278128  0.28059369  0.34528696     0.19660
F3935       F  0.56222744  0.29803729  0.35538192    -0.13200
F3936       F  0.60776954  0.29486208  0.35789971    -0.15560
F3937       F  0.55996096  0.22928637  0.31366476    -0.15560
F3938       F  0.60531411  0.22638013  0.31570295    -0.13200
C3939       C  0.70865393  0.36225562  0.26143430     0.24810
C3940       C  0.69101464  0.34794509  0.25545254    -0.23290
C3941       C  0.66959503  0.35690948  0.25202835     0.19720
C3942       C  0.66584756  0.37999222  0.25482705     0.24760
C3943       C  0.68366015  0.39434581  0.26035149    -0.23240
C3944       C  0.70505351  0.38529871  0.26369775     0.19660
F3945       F  0.72239587  0.39878160  0.26963498    -0.13200
F3946       F  0.72950085  0.35390800  0.26457327    -0.15560
F3947       F  0.64507282  0.38842630  0.25152780    -0.15560
F3948       F  0.65248761  0.34335483  0.24564675    -0.13200
C3949       C  0.72652003  0.30810011  0.18560022     0.24810
C3950       C  0.71483454  0.29209504  0.19872115    -0.23290
C3951       C  0.70820197  0.27179700  0.18855075     0.19720
C3952       C  0.71298556  0.26771796  0.16594926     0.24760
C3953       C  0.72382397  0.28405419  0.15285153    -0.23240
C3954       C  0.73048685  0.30428907  0.16274964     0.19660
F3955       F  0.74100936  0.32024713  0.15033600    -0.13200
F3956       F  0.73428583  0.32741734  0.19488590    -0.15560
F3957       F  0.70602193  0.24816545  0.15649350    -0.15560
F3958       F  0.69610421  0.25631293  0.20008813    -0.13200
C3959       C  0.84026693  0.20787025  0.29800784     0.24810
C3960       C  0.84790957  0.21508972  0.27682993    -0.23290
C3961       C  0.83208604  0.22018502  0.26008500     0.19720
C3962       C  0.80915137  0.21772472  0.26437996     0.24760
C3963       C  0.80173583  0.21027891  0.28546861    -0.23240
C3964       C  0.81746779  0.20553279  0.30224144     0.19660
F3965       F  0.81065187  0.19870494  0.32290044    -0.13200
F3966       F  0.85481016  0.20378391  0.31498197    -0.15560
F3967       F  0.79423889  0.22192588  0.24778232    -0.15560
F3968       F  0.83881183  0.22712931  0.23945346    -0.13200
C3969       C  0.76083333  0.14081908  0.32041453     0.24810
C3970       C  0.74528500  0.15378960  0.30812438    -0.23290
C3971       C  0.72553692  0.14335571  0.30060133     0.19720
C3972       C  0.72158578  0.12063245  0.30503942     0.24760
C3973       C  0.73752848  0.10768228  0.31642947    -0.23240
C3974       C  0.75719071  0.11785830  0.32403663     0.19660
F3975       F  0.77274930  0.10560899  0.33513289    -0.13200
F3976       F  0.77956941  0.15034795  0.32904879    -0.15560
F3977       F  0.70258150  0.11092511  0.29721133    -0.15560
F3978       F  0.71053208  0.15475478  0.28794383    -0.13200
C3979       C  0.59042575  0.74971420  0.49693873     0.24810
C3980       C  0.59716952  0.76813572  0.51020915    -0.23290
C3981       C  0.58055280  0.78122171  0.52075409     0.19720
C3982       C  0.55786604  0.77615904  0.51783719     0.24760
C3983       C  0.55129870  0.75778102  0.50455162    -0.23240
C3984       C  0.56787641  0.74447708  0.49441750     0.19660
F3985       F  0.56228370  0.72594436  0.48234915    -0.13200
F3986       F  0.60560987  0.73615394  0.48681027    -0.15560
F3987       F  0.54233910  0.78957369  0.52760123    -0.15560
F3988       F  0.58615151  0.79896865  0.53391241    -0.13200
C3989       C  0.72051792  0.63084229  0.53727667     0.24810
C3990       C  0.73723344  0.64379019  0.52685372    -0.23290
C3991       C  0.75745790  0.63379686  0.52093035     0.19720
C3992       C  0.76092362  0.61100453  0.52514415     0.24760
C3993       C  0.74465484  0.59802056  0.53663083    -0.23240
C3994       C  0.72429898  0.60825858  0.54248196     0.19660
F3995       F  0.70844279  0.59682052  0.55413400    -0.13200
F3996       F  0.70087373  0.64042320  0.54340749    -0.15560
F3997       F  0.78020582  0.60166763  0.51771872    -0.15560
F3998       F  0.77375120  0.64605684  0.51080188    -0.13200
C3999       C  0.81734607  0.75235851  0.59067386     0.24810
C4000       C  0.81043071  0.73320161  0.57858035    -0.23290
C4001       C  0.82694858  0.71926848  0.56900996     0.19720
C4002       C  0.84969913  0.72403975  0.57202454     0.24760
C4003       C  0.85644832  0.74293544  0.58445595    -0.23240
C4004       C  0.83998865  0.75724834  0.59333957     0.19660
F4005       F  0.84583948  0.77621850  0.60457823    -0.13200
F4006       F  0.80224897  0.76682892  0.59959785    -0.15560
F4007       F  0.86510548  0.70971444  0.56344083    -0.15560
F4008       F  0.82117967  0.70081216  0.55694673    -0.13200
C4009       C  0.67668866  0.86575064  0.54248135     0.24810
C4010       C  0.66986345  0.85633815  0.56300732    -0.23290
C4011       C  0.66097741  0.87017569  0.57979706     0.19720
C4012       C  0.65832086  0.89317142  0.57580706     0.24760
C4013       C  0.66513065  0.90256912  0.55524230    -0.23240
C4014       C  0.67449257  0.88877876  0.53868408     0.19660
F4015       F  0.68075950  0.89752120  0.51859028    -0.13200
F4016       F  0.68564960  0.85259927  0.52618772    -0.15560
F4017       F  0.64875838  0.90625601  0.59179799    -0.15560
F4018       F  0.65432583  0.86130955  0.59970448    -0.13200
C4019       C  0.66817090  0.70401810  0.42613051     0.24810
C4020       C  0.68415924  0.71490763  0.43943130    -0.23290
C4021       C  0.70374491  0.72334171  0.42947876     0.19720
C4022       C  0.70741285  0.72080671  0.40646679     0.24760
C4023       C  0.69169333  0.70949064  0.39318390    -0.23240
C4024       C  0.67206067  0.70104989  0.40313328     0.19660
F4025       F  0.65683032  0.68976445  0.39056716    -0.13200
F4026       F  0.64912812  0.69587348  0.43549948    -0.15560
F4027       F  0.72666049  0.72867528  0.39726246    -0.15560
F4028       F  0.71928480  0.73413620  0.44210788    -0.13200
C4029       C  0.21415617  0.70774056  0.93054498     0.24810
C4030       C  0.19316698  0.70973864  0.94110780    -0.23290
C4031       C  0.17396808  0.71223845  0.92768222     0.19720
C4032       C  0.17570954  0.71160080  0.90418445     0.24760
C4033       C  0.19665327  0.70886345  0.89391443    -0.23240
C4034       C  0.21582296  0.70731657  0.90724394     0.19660
F4035       F  0.23621101  0.70470149  0.89757482    -0.13200
F4036       F  0.23324715  0.70646528  0.94275015    -0.15560
F4037       F  0.15693542  0.71267267  0.89149800    -0.15560
F4038       F  0.15350711  0.71447149  0.93725660    -0.13200
C4039       C  0.23221053  0.64521389  0.82612734     0.24810
C4040       C  0.21212308  0.65172046  0.83643574    -0.23290
C4041       C  0.19715499  0.63508260  0.84382721     0.19720
C4042       C  0.20222735  0.61237827  0.84130201     0.24760
C4043       C  0.22241805  0.60566321  0.83111375    -0.23240
C4044       C  0.23731228  0.62238877  0.82343000     0.19660
F4045       F  0.25696155  0.61670526  0.81358719    -0.13200
F4046       F  0.24722155  0.66094262  0.81934713    -0.15560
F4047       F  0.18690291  0.59701614  0.84825269    -0.15560
F4048       F  0.17737904  0.64087197  0.85339136    -0.13200
C4049       C  0.08989576  0.80167873  0.79258903     0.24810
C4050       C  0.10638066  0.79046006  0.80514985    -0.23290
C4051       C  0.09951425  0.77555333  0.82214086     0.19720
C4052       C  0.07674526  0.77220452  0.82665018     0.24760
C4053       C  0.06025673  0.78399421  0.81451026    -0.23240
C4054       C  0.06726164  0.79882103  0.79742782     0.19660
F4055       F  0.05225161  0.81032268  0.78484610    -0.13200
F4056       F  0.09563033  0.81522813  0.77515917    -0.15560
F4057       F  0.07095894  0.75736361  0.84295298    -0.15560
F4058       F  0.11481014  0.76458977  0.83482998    -0.13200
C4059       C  0.08204566  0.77280558  0.51352717     0.24810
C4060       C  0.09845754  0.78387540  0.52651639    -0.23290
C4061       C  0.09137080  0.79798257  0.54412635     0.19720
C4062       C  0.06872008  0.80086242  0.54864805     0.24760
C4063       C  0.05234401  0.79027854  0.53537889    -0.23240
C4064       C  0.05924254  0.77607604  0.51786140     0.19660
F4065       F  0.04395082  0.76570490  0.50461068    -0.13200
F4066       F  0.08795574  0.75876766  0.49659146    -0.15560
F4067       F  0.06281726  0.81372399  0.56651445    -0.15560
F4068       F  0.10630183  0.80861900  0.55760403    -0.13200
C4069       C  0.20464538  0.86266471  0.59352699     0.24810
C4070       C  0.18552088  0.85567144  0.58160226    -0.23290
C4071       C  0.17136937  0.87222527  0.57243883     0.19720
C4072       C  0.17619746  0.89511474  0.57526909     0.24760
C4073       C  0.19528951  0.90190519  0.58718210    -0.23240
C4074       C  0.20951284  0.88542496  0.59610035     0.19660
F4075       F  0.22849982  0.89138266  0.60706801    -0.13200
F4076       F  0.21922550  0.84753008  0.60215989    -0.15560
F4077       F  0.16189622  0.91062822  0.56686930    -0.15560
F4078       F  0.15275969  0.86633796  0.56084021    -0.13200
C4079       C  0.20655495  0.63674100  0.49691518     0.24810
C4080       C  0.22486976  0.64363761  0.51008592    -0.23290
C4081       C  0.23817638  0.62702156  0.52036275     0.19720
C4082       C  0.23341974  0.60416899  0.51726292     0.24760
C4083       C  0.21514516  0.59745623  0.50406590    -0.23240
C4084       C  0.20161307  0.61403806  0.49423655     0.19660
F4085       F  0.18311816  0.60829452  0.48234785    -0.13200
F4086       F  0.19277150  0.65191864  0.48711266    -0.15560
F4087       F  0.24698128  0.58863679  0.52679190    -0.15560
F4088       F  0.25582469  0.63278702  0.53344280    -0.13200
C4089       C  0.18124146  0.71683272  0.42254775     0.24810
C4090       C  0.16950277  0.72906029  0.43910765    -0.23290
C4091       C  0.15404318  0.74538676  0.43205978     0.19720
C4092       C  0.15069111  0.74961367  0.40931125     0.24760
C4093       C  0.16199498  0.73709261  0.39273872    -0.23240
C4094       C  0.17737818  0.72067861  0.39965639     0.19660
F4095       F  0.18846268  0.70803946  0.38432317    -0.13200
F4096       F  0.19660481  0.70116707  0.42838245    -0.15560
F4097       F  0.13675576  0.76662043  0.40357786    -0.15560
F4098       F  0.14249715  0.75795439  0.44712800    -0.13200
C4099       C  0.24745789  0.74604713  0.65936721     0.24810
C4100       C  0.23811417  0.76667514  0.65260813    -0.23290
C4101       C  0.23059936  0.78175299  0.66921640     0.19720
C4102       C  0.23284856  0.77649471  0.69201669     0.24760
C4103       C  0.24248080  0.75604603  0.69859145    -0.23240
C4104       C  0.24949906  0.74079627  0.68206009     0.19660
F4105       F  0.25846685  0.72071526  0.68795318    -0.13200
F4106       F  0.25414687  0.73055892  0.64404818    -0.15560
F4107       F  0.22648110  0.79177596  0.70766310    -0.15560
F4108       F  0.22149946  0.80178896  0.66344378    -0.13200
C4109       C  0.31823635  0.70838133  0.54277886     0.24810
C4110       C  0.31109757  0.71607505  0.56397187    -0.23290
C4111       C  0.32727076  0.72146508  0.58027128     0.19720
C4112       C  0.35004791  0.71857836  0.57564154     0.24760
C4113       C  0.35697378  0.71042658  0.55463723    -0.23240
C4114       C  0.34089820  0.70566128  0.53818558     0.19660
F4115       F  0.34721321  0.69829305  0.51756129    -0.13200
F4116       F  0.30332820  0.70401476  0.52617507    -0.15560
F4117       F  0.36527597  0.72286247  0.59195205    -0.15560
F4118       F  0.32104109  0.72896152  0.60085682    -0.13200
C4119       C  0.21191169  0.19631681  0.40834898     0.24810
C4120       C  0.19670550  0.20700915  0.39394137    -0.23290
C4121       C  0.17918154  0.21955502  0.40335763     0.19720
C4122       C  0.17654800  0.22067436  0.42680742     0.24760
C4123       C  0.19123527  0.20893282  0.44117802    -0.23240
C4124       C  0.20897226  0.19678346  0.43144787     0.19660
F4125       F  0.22391457  0.18535371  0.44418194    -0.13200
F4126       F  0.22984108  0.18513462  0.39998970    -0.15560
F4127       F  0.15964413  0.23321239  0.43533572    -0.15560
F4128       F  0.16430628  0.23020246  0.38992024    -0.13200
C4129       C  0.20304344  0.13952426  0.31934001     0.24810
C4130       C  0.21447577  0.15180562  0.33582519    -0.23290
C4131       C  0.22958817  0.14054994  0.35008763     0.19720
C4132       C  0.23185275  0.11722340  0.34904148     0.24760
C4133       C  0.21931060  0.10492741  0.33355127    -0.23240
C4134       C  0.20545503  0.11619697  0.31823915     0.19660
F4135       F  0.19349345  0.10442794  0.30285521    -0.13200
F4136       F  0.18835155  0.14983724  0.30543652    -0.15560
F4137       F  0.24541125  0.10655910  0.36381613    -0.15560
F4138       F  0.24140460  0.15209874  0.36574173    -0.13200
C4139       C  0.16871043  0.36066230  0.30263067     0.24810
C4140       C  0.16325825  0.34635259  0.28477593    -0.23290
C4141       C  0.16019953  0.35533507  0.26319750     0.19720
C4142       C  0.16289314  0.37843091  0.25947878     0.24760
C4143       C  0.16798287  0.39279010  0.27745901    -0.23240
C4144       C  0.17091124  0.38373931  0.29903977     0.19660
F4145       F  0.17642813  0.39723754  0.31655834    -0.13200
F4146       F  0.17146103  0.35227502  0.32362923    -0.15560
F4147       F  0.15993475  0.38686777  0.23854034    -0.15560
F4148       F  0.15423645  0.34177003  0.24589521    -0.13200
C4149       C  0.09061669  0.29364483  0.28766232     0.24810
C4150       C  0.10666811  0.28929619  0.30422929    -0.23290
C4151       C  0.09965959  0.28197855  0.32551976     0.19720
C4152       C  0.07684194  0.27928270  0.33023037     0.24760
C4153       C  0.06069711  0.28400973  0.31371803    -0.23240
C4154       C  0.06790804  0.29105463  0.29231410     0.19660
F4155       F  0.05302468  0.29477292  0.27555375    -0.13200
F4156       F  0.09701551  0.30031803  0.26682166    -0.15560
F4157       F  0.07053812  0.27254581  0.35106222    -0.15560
F4158       F  0.11486390  0.27821679  0.34195793    -0.13200
C4159       C  0.31426304  0.22715471  0.24292220     0.24810
C4160       C  0.30285767  0.24136260  0.25807106    -0.23290
C4161       C  0.31485785  0.25146247  0.27561045     0.19720
C4162       C  0.33805342  0.24870835  0.27692650     0.24760
C4163       C  0.34946497  0.23598911  0.26066843    -0.23240
C4164       C  0.33742531  0.22479576  0.24401678     0.19660
F4165       F  0.34818914  0.21229240  0.22833651    -0.13200
F4166       F  0.30301011  0.21616905  0.22649051    -0.15560
F4167       F  0.34955555  0.25929321  0.29347090    -0.15560
F4168       F  0.30442159  0.26512445  0.29052058    -0.13200
C4169       C  0.23107539  0.27577641  0.16669003     0.24810
C4170       C  0.24483419  0.26298631  0.15225746    -0.23290
C4171       C  0.26028750  0.24808269  0.16186487     0.19720
C4172       C  0.26151764  0.24545198  0.18494878     0.24760
C4173       C  0.24850290  0.25871919  0.19953175    -0.23240
C4174       C  0.23307548  0.27382396  0.19013796     0.19660
F4175       F  0.22014202  0.28686327  0.20354510    -0.13200
F4176       F  0.21540871  0.28984665  0.15821614    -0.15560
F4177       F  0.27536703  0.22935123  0.19297499    -0.15560
F4178       F  0.27425744  0.23558214  0.14896341    -0.13200
C4179       C  0.69938818  0.61438171  0.99595598     0.24810
C4180       C  0.71379893  0.59786793  0.00449743    -0.23290
C4181       C  0.73308170  0.60462294  0.01612192     0.19720
C4182       C  0.73794388  0.62751655  0.01897016     0.24760
C4183       C  0.72363064  0.64410241  0.01011633    -0.23240
C4184       C  0.70427571  0.63713730  0.99855631     0.19660
F4185       F  0.68950219  0.65229765  0.99030963    -0.13200
F4186       F  0.68022015  0.60845114  0.98529568    -0.15560
F4187       F  0.75675354  0.63338101  0.03025085    -0.15560
F4188       F  0.74753535  0.58907652  0.02418930    -0.13200
C4189       C  0.67739276  0.39539594  0.07379584     0.24810
C4190       C  0.66309055  0.40224092  0.05643305    -0.23290
C4191       C  0.65226592  0.38567767  0.04348425     0.19720
C4192       C  0.65495986  0.36293856  0.04823825     0.24760
C4193       C  0.66921350  0.35592245  0.06565575    -0.23240
C4194       C  0.68055174  0.37250064  0.07828036     0.19660
F4195       F  0.69475400  0.36667321  0.09501589    -0.13200
F4196       F  0.68794306  0.41082877  0.08680058    -0.15560
F4197       F  0.64393698  0.34784329  0.03520992    -0.15560
F4198       F  0.63926042  0.39146267  0.02575791    -0.13200
C4199       C  0.59464346  0.44353569  0.02276458     0.24810
C4200       C  0.60658918  0.45887929  0.03633040    -0.23290
C4201       C  0.59502886  0.47677334  0.04637964     0.19720
C4202       C  0.57184111  0.47844456  0.04401200     0.24760
C4203       C  0.55993105  0.46221668  0.03174316    -0.23240
C4204       C  0.57145123  0.44505803  0.02074258     0.19660
F4205       F  0.56016064  0.42937148  0.00869661    -0.13200
F4206       F  0.60539437  0.42659431  0.01202128    -0.15560
F4207       F  0.56082600  0.49534834  0.05454631    -0.15560
F4208       F  0.60588070  0.49174091  0.05967517    -0.13200
C4209       C  0.81154233  0.53162332  0.08912579     0.24810
C4210       C  0.80062054  0.51100650  0.08559391    -0.23290
C4211       C  0.81317917  0.49183701  0.08059345     0.19720
C4212       C  0.83641619  0.49297466  0.07996218     0.24760
C4213       C  0.84753894  0.51341164  0.08410408    -0.23240
C4214       C  0.83492714  0.53291137  0.08801940     0.19660
F4215       F  0.84524962  0.55286988  0.09181760    -0.13200
F4216       F  0.79959479  0.55022754  0.09442689    -0.15560
F4217       F  0.84809521  0.47402398  0.07522607    -0.15560
F4218       F  0.80290152  0.47172861  0.07740580    -0.13200
C4219       C  0.76073457  0.47754196  0.15554204     0.24810
C4220       C  0.74508820  0.49017820  0.14305512    -0.23290
C4221       C  0.72560368  0.49775030  0.15386944     0.19720
C4222       C  0.72197937  0.49299372  0.17655004     0.24760
C4223       C  0.73796849  0.48113495  0.18900907    -0.23240
C4224       C  0.75738370  0.47349257  0.17844113     0.19660
F4225       F  0.77295640  0.46193705  0.19023809    -0.13200
F4226       F  0.77923502  0.46893255  0.14556957    -0.15560
F4227       F  0.70321377  0.50083025  0.18667494    -0.15560
F4228       F  0.71053005  0.51065548  0.14284117    -0.13200
C4229       C  0.73801829  0.47273128  0.67355166     0.24810
C4230       C  0.72289140  0.46526334  0.69013926    -0.23290
C4231       C  0.70231154  0.45596209  0.68328182     0.19720
C4232       C  0.69718521  0.45386672  0.66057060     0.24760
C4233       C  0.71252543  0.46071236  0.64405716    -0.23240
C4234       C  0.73289262  0.47038869  0.65071274     0.19660
F4235       F  0.74818004  0.47679367  0.63511602    -0.13200
F4236       F  0.75794064  0.48194903  0.67937299    -0.15560
F4237       F  0.67706554  0.44510315  0.65465609    -0.15560
F4238       F  0.68671815  0.44938237  0.69851609    -0.13200
C4239       C  0.58714175  0.47365183  0.84903285     0.24810
C4240       C  0.59743732  0.48114294  0.82931639    -0.23290
C4241       C  0.58486594  0.49285874  0.81328113     0.19720
C4242       C  0.56238188  0.49775559  0.81722257     0.24760
C4243       C  0.55188698  0.49046424  0.83708237    -0.23240
C4244       C  0.56443505  0.47782943  0.85270218     0.19660
F4245       F  0.55472824  0.46944452  0.87153875    -0.13200
F4246       F  0.59904782  0.46220971  0.86464487    -0.15560
F4247       F  0.55127500  0.51061020  0.80212402    -0.15560
F4248       F  0.59472894  0.50054451  0.79422423    -0.13200
C4249       C  0.66903237  0.53007634  0.91831012     0.24810
C4250       C  0.68535584  0.53515003  0.90200649    -0.23290
C4251       C  0.70662766  0.54240683  0.90911319     0.19720
C4252       C  0.71133725  0.54483840  0.93188424     0.24760
C4253       C  0.69495518  0.54014843  0.94809158    -0.23240
C4254       C  0.67379959  0.53263620  0.94119630     0.19660
F4255       F  0.65754677  0.52855847  0.95658284    -0.13200
F4256       F  0.64834471  0.52309742  0.91210362    -0.15560
F4257       F  0.73203861  0.55174028  0.93819057    -0.15560
F4258       F  0.72321717  0.54648325  0.89407137    -0.13200
C4259       C  0.65610962  0.38683236  0.79605517     0.24810
C4260       C  0.66866829  0.39373293  0.77723907    -0.23290
C4261       C  0.67860996  0.37711294  0.76360407     0.19720
C4262       C  0.67583642  0.35425987  0.76856059     0.24760
C4263       C  0.66325887  0.34752911  0.78732915    -0.23240
C4264       C  0.65367852  0.36410259  0.80113774     0.19660
F4265       F  0.64214938  0.35829587  0.81992341    -0.13200
F4266       F  0.64665674  0.40204178  0.81012602    -0.15560
F4267       F  0.68494876  0.33872509  0.75463620    -0.15560
F4268       F  0.69096309  0.38288412  0.74536552    -0.13200
C4269       C  0.82072854  0.49780231  0.77391830     0.24810
C4270       C  0.81110374  0.51712662  0.76448176    -0.23290
C4271       C  0.82457297  0.53251042  0.75291354     0.19720
C4272       C  0.84737927  0.52824204  0.75018232     0.24760
C4273       C  0.85699927  0.50874452  0.75936502    -0.23240
C4274       C  0.84359298  0.49369150  0.77148643     0.19660
F4275       F  0.85245722  0.47456820  0.78005252    -0.13200
F4276       F  0.80788239  0.48283494  0.78533754    -0.15560
F4277       F  0.86005280  0.54283804  0.73811215    -0.15560
F4278       F  0.81551419  0.55124775  0.74373715    -0.13200
C4279       C  0.92595071  0.60424328  0.32515556     0.24810
C4280       C  0.91186332  0.59761238  0.30748615    -0.23290
C4281       C  0.90135863  0.61431116  0.29455827     0.19720
C4282       C  0.90422326  0.63698719  0.29954713     0.24760
C4283       C  0.91830550  0.64379967  0.31723680    -0.23240
C4284       C  0.92926408  0.62708555  0.32990515     0.19660
F4285       F  0.94326241  0.63273957  0.34689846    -0.13200
F4286       F  0.93619140  0.58864623  0.33814443    -0.15560
F4287       F  0.89363883  0.65222891  0.28639144    -0.15560
F4288       F  0.88861203  0.60873005  0.27655419    -0.13200
C4289       C  0.84417952  0.55517702  0.27155552     0.24810
C4290       C  0.85610644  0.54027835  0.28554229    -0.23290
C4291       C  0.84497874  0.52153357  0.29457526     0.19720
C4292       C  0.82234529  0.51800057  0.29002156     0.24760
C4293       C  0.81043811  0.53328308  0.27667999    -0.23240
C4294       C  0.82143009  0.55184597  0.26743954     0.19660
F4295       F  0.81014231  0.56668234  0.25443870    -0.13200
F4296       F  0.85457108  0.57301772  0.26188402    -0.15560
F4297       F  0.81176141  0.50009132  0.29936819    -0.15560
F4298       F  0.85568254  0.50725454  0.30866176    -0.13200
C4299       C  0.98627268  0.49157143  0.42939010     0.24810
C4300       C  0.99280376  0.51152821  0.44024039    -0.23290
C4301       C  0.99850019  0.53041858  0.42733830     0.19720
C4302       C  0.99903043  0.52886389  0.40387259     0.24760
C4303       C  0.99314948  0.50865747  0.39314753    -0.23240
C4304       C  0.98633157  0.49020363  0.40602327     0.19660
F4305       F  0.98088591  0.47048158  0.39595131    -0.13200
F4306       F  0.97982865  0.47333608  0.44148966    -0.15560
F4307       F  0.00616647  0.54671244  0.39161319    -0.15560
F4308       F  0.00461707  0.54990727  0.43745098    -0.13200
C4309       C  0.07988503  0.46852459  0.32020459     0.24810
C4310       C  0.09656184  0.48148631  0.33087123    -0.23290
C4311       C  0.08989826  0.49993851  0.34410457     0.19720
C4312       C  0.06736889  0.50525848  0.34656134     0.24760
C4313       C  0.05071477  0.49198929  0.33642137    -0.23240
C4314       C  0.05721584  0.47364984  0.32307664     0.19660
F4315       F  0.04163996  0.46025238  0.31330899    -0.13200
F4316       F  0.08540618  0.45076919  0.30704707    -0.15560
F4317       F  0.06185805  0.52374515  0.35871286    -0.15560
F4318       F  0.10515005  0.51339403  0.35432476    -0.13200
C4319       C  0.95151578  0.38581048  0.24333595     0.24810
C4320       C  0.96382828  0.40249738  0.25472557    -0.23290
C4321       C  0.98081776  0.39573611  0.26951276     0.19720
C4322       C  0.98551516  0.37287066  0.27261267     0.24760
C4323       C  0.97358860  0.35621983  0.26065334    -0.23240
C4324       C  0.95660986  0.36313483  0.24585987     0.19660
F4325       F  0.94432779  0.34798024  0.23409304    -0.13200
F4326       F  0.93403988  0.39136318  0.22994706    -0.15560
F4327       F  0.00172464  0.36714566  0.28743065    -0.15560
F4328       F  0.99325707  0.41121420  0.28064668    -0.13200
C4329       C  0.92851456  0.44553383  0.18689638     0.24810
C4330       C  0.94362515  0.45963974  0.19841109    -0.23290
C4331       C  0.95535016  0.47619035  0.18642718     0.19720
C4332       C  0.95301882  0.47768309  0.16314755     0.24760
C4333       C  0.93890511  0.46274761  0.15162096    -0.23240
C4334       C  0.92623396  0.44705475  0.16360730     0.19660
F4335       F  0.91248257  0.43258966  0.15266931    -0.13200
F4336       F  0.91660504  0.42969826  0.19816632    -0.15560
F4337       F  0.96524606  0.49312374  0.15166920    -0.15560
F4338       F  0.97018735  0.48983010  0.19699348    -0.13200
C4339       C  0.17058069  0.02754131  0.91903191     0.24810
C4340       C  0.18624355  0.03309783  0.90223794    -0.23290
C4341       C  0.20783874  0.03998863  0.90873527     0.19720
C4342       C  0.21342940  0.04180886  0.93136171     0.24760
C4343       C  0.19761408  0.03695581  0.94808991    -0.23240
C4344       C  0.17620667  0.02957429  0.94179005     0.19660
F4345       F  0.16043468  0.02538630  0.95764587    -0.13200
F4346       F  0.14964554  0.02077938  0.91345681    -0.15560
F4347       F  0.23433531  0.04865999  0.93701342    -0.15560
F4348       F  0.22384949  0.04452911  0.89320076    -0.13200
C4349       C  0.08374835  0.99083049  0.81081004     0.24810
C4350       C  0.09673609  0.98156720  0.82810426    -0.23290
C4351       C  0.08683529  0.97670616  0.84875973     0.19720
C4352       C  0.06413174  0.98083181  0.85210646     0.24760
C4353       C  0.05112412  0.99136494  0.83527467    -0.23240
C4354       C  0.06126551  0.99610365  0.81445855     0.19660
F4355       F  0.04986712  0.00680194  0.79797144    -0.13200
F4356       F  0.09320495  0.99589757  0.79070408    -0.15560
F4357       F  0.05493496  0.97426076  0.87186647    -0.15560
F4358       F  0.09911566  0.96770628  0.86563282    -0.13200
C4359       C  0.17662974  0.87713284  0.76310013     0.24810
C4360       C  0.16906345  0.89380005  0.77809475    -0.23290
C4361       C  0.15947835  0.88703699  0.79865073     0.19720
C4362       C  0.15727857  0.86430359  0.80391457     0.24760
C4363       C  0.16435138  0.84770267  0.78873457    -0.23240
C4364       C  0.17421810  0.85430236  0.76835818     0.19660
F4365       F  0.18077745  0.83864534  0.75317312    -0.13200
F4366       F  0.18603298  0.88287916  0.74316412    -0.15560
F4367       F  0.14827860  0.85846030  0.82402854    -0.15560
F4368       F  0.15279629  0.90239449  0.81410386    -0.13200
C4369       C  0.25406920  0.11303219  0.79827437     0.24810
C4370       C  0.23921973  0.10624327  0.81538656    -0.23290
C4371       C  0.22759928  0.12296743  0.82746420     0.19720
C4372       C  0.23093633  0.14577335  0.82267899     0.24760
C4373       C  0.24569722  0.15239486  0.80552429    -0.23240
C4374       C  0.25696694  0.13570510  0.79321639     0.19660
F4375       F  0.27057622  0.14128956  0.77581709    -0.13200
F4376       F  0.26550181  0.09777333  0.78583932    -0.15560
F4377       F  0.22008806  0.16135823  0.83521792    -0.15560
F4378       F  0.21290192  0.11737315  0.84391765    -0.13200
C4379       C  0.20196081  0.95683860  0.68227733     0.24810
C4380       C  0.22272545  0.96537928  0.68947732    -0.23290
C4381       C  0.23866126  0.97168509  0.67318912     0.19720
C4382       C  0.23405010  0.96905588  0.65026173     0.24760
C4383       C  0.21342068  0.96023695  0.64326423    -0.23240
C4384       C  0.19737708  0.95439458  0.65947761     0.19660
F4385       F  0.17710147  0.94631239  0.65316291    -0.13200
F4386       F  0.18568936  0.95144731  0.69725902    -0.15560
F4387       F  0.25001786  0.97433826  0.63493902    -0.15560
F4388       F  0.25886121  0.97996613  0.67943253    -0.13200
C4389       C  0.34503061  0.22085976  0.04167458     0.24810
C4390       C  0.35677468  0.20843457  0.05778721    -0.23290
C4391       C  0.34499552  0.19857918  0.07576262     0.19720
C4392       C  0.32168491  0.20054967  0.07715137     0.24760
C4393       C  0.30993890  0.21186594  0.06025870    -0.23240
C4394       C  0.32179138  0.22238578  0.04279975     0.19660
F4395       F  0.31072971  0.23383412  0.02655776    -0.13200
F4396       F  0.35594337  0.23031193  0.02404127    -0.15560
F4397       F  0.31051912  0.19048477  0.09426331    -0.15560
F4398       F  0.35603616  0.18649703  0.09153169    -0.13200
C4399       C  0.40096626  0.11560494  0.01849834     0.24810
C4400       C  0.42100976  0.10566762  0.02529246    -0.23290
C4401       C  0.43694844  0.11864913  0.03674744     0.19720
C4402       C  0.43272414  0.14115073  0.04189294     0.24760
C4403       C  0.41267942  0.15137968  0.03504246    -0.23240
C4404       C  0.39702316  0.13838563  0.02284540     0.19660
F4405       F  0.37794390  0.14773542  0.01491693    -0.13200
F4406       F  0.38531773  0.10330416  0.00749345    -0.15560
F4407       F  0.44781486  0.15252930  0.05454370    -0.15560
F4408       F  0.45621651  0.10913643  0.04401698    -0.13200
C4409       C  0.56643129  0.24015763  0.01397807     0.24810
C4410       C  0.55168443  0.25773658  0.00916512    -0.23290
C4411       C  0.55999668  0.27972717  0.00691215     0.19720
C4412       C  0.58285920  0.28408681  0.00955130     0.24760
C4413       C  0.59768811  0.26638330  0.01384479    -0.23240
C4414       C  0.58928440  0.24441949  0.01620776     0.19660
F4415       F  0.60322281  0.22712094  0.02100019    -0.13200
F4416       F  0.55871923  0.21878050  0.01590813    -0.15560
F4417       F  0.59063967  0.30537178  0.00704276    -0.15560
F4418       F  0.54604531  0.29678706  0.00140405    -0.13200
C4419       C  0.50692757  0.25610156  0.91119662     0.24810
C4420       C  0.49566262  0.23770753  0.90135022    -0.23290
C4421       C  0.48506720  0.22203524  0.91568859     0.19720
C4422       C  0.48627842  0.22445856  0.93914949     0.24760
C4423       C  0.49792117  0.24263732  0.94867697    -0.23240
C4424       C  0.50775813  0.25861837  0.93438823     0.19660
F4425       F  0.51828490  0.27694892  0.94295777    -0.13200
F4426       F  0.51706089  0.27210141  0.89849237    -0.15560
F4427       F  0.47663216  0.20872282  0.95251643    -0.15560
F4428       F  0.47357783  0.20433737  0.90711419    -0.13200
C4429       C  0.47876950  0.35636003  0.07685887     0.24810
C4430       C  0.45881151  0.34726255  0.08540449    -0.23290
C4431       C  0.44180905  0.36180027  0.09244638     0.19720
C4432       C  0.44495068  0.38495134  0.09206386     0.24760
C4433       C  0.46525764  0.39435159  0.08439253    -0.23240
C4434       C  0.48195343  0.37976297  0.07623258     0.19660
F4435       F  0.50156265  0.38803932  0.06826439    -0.13200
F4436       F  0.49554854  0.34259985  0.07017378    -0.15560
F4437       F  0.42783243  0.39809235  0.09917087    -0.15560
F4438       F  0.42219470  0.35343921  0.10038560    -0.13200
C4439       C  0.43047116  0.27906461  0.15354288     0.24810
C4440       C  0.44900306  0.29009967  0.14406157    -0.23290
C4441       C  0.46509605  0.29954214  0.15836351     0.19720
C4442       C  0.46231202  0.29907827  0.18153332     0.24760
C4443       C  0.44347671  0.28860195  0.19134375    -0.23240
C4444       C  0.42776064  0.27820437  0.17700122     0.19660
F4445       F  0.40963882  0.26745742  0.18556359    -0.13200
F4446       F  0.41458459  0.26990194  0.14012011    -0.15560
F4447       F  0.47838982  0.30893513  0.19424988    -0.15560
F4448       F  0.48357121  0.30970965  0.14977760    -0.13200
C4449       C  0.56774978  0.95677039  0.78683293     0.24810
C4450       C  0.55139237  0.96303454  0.80252209    -0.23290
C4451       C  0.55805882  0.97219874  0.82318323     0.19720
C4452       C  0.58080483  0.97458542  0.82825866     0.24760
C4453       C  0.59724185  0.96766129  0.81277756    -0.23240
C4454       C  0.59037483  0.95896172  0.79188361     0.19660
F4455       F  0.60552726  0.95297436  0.77600112    -0.13200
F4456       F  0.56173880  0.94824163  0.76657282    -0.15560
F4457       F  0.58670391  0.98310838  0.84853420    -0.15560
F4458       F  0.54257331  0.97786199  0.83884188    -0.13200
C4459       C  0.34933802  0.02703646  0.76993433     0.24810
C4460       C  0.35610592  0.01010851  0.75496160    -0.23290
C4461       C  0.33960635  0.99762430  0.74359459     0.19720
C4462       C  0.31703114  0.00241916  0.74642567     0.24760
C4463       C  0.31009688  0.01933098  0.76141992    -0.23240
C4464       C  0.32658988  0.03149021  0.77328055     0.19660
F4465       F  0.32082219  0.04768988  0.78821939    -0.13200
F4466       F  0.36469807  0.03961717  0.78103022    -0.15560
F4467       F  0.30200730  0.98987612  0.73480632    -0.15560
F4468       F  0.34526202  0.98023571  0.72998590    -0.13200
C4469       C  0.39761270  0.97642682  0.68626584     0.24810
C4470       C  0.41295322  0.98970703  0.69851034    -0.23290
C4471       C  0.43105177  0.99955742  0.68709184     0.19720
C4472       C  0.43294141  0.99731038  0.66377548     0.24760
C4473       C  0.41675075  0.98534083  0.65157328    -0.23240
C4474       C  0.39936490  0.97452076  0.66294815     0.19660
F4475       F  0.38365435  0.96281926  0.65139288    -0.13200
F4476       F  0.38043976  0.96587823  0.69684247    -0.15560
F4477       F  0.45002538  0.00771495  0.65291196    -0.15560
F4478       F  0.44602493  0.01258711  0.69820364    -0.13200
C4479       C  0.45572678  0.05343705  0.91081540     0.24810
C4480       C  0.46631093  0.04063872  0.89395342    -0.23290
C4481       C  0.48182807  0.02418941  0.90054725     0.19720
C4482       C  0.48664846  0.02074888  0.92334709     0.24760
C4483       C  0.47648366  0.03407307  0.94011213    -0.23240
C4484       C  0.46114034  0.05064521  0.93336544     0.19660
F4485       F  0.45067121  0.06395180  0.94859543    -0.13200
F4486       F  0.43944347  0.06839477  0.90564806    -0.15560
F4487       F  0.50108534  0.00412515  0.92890592    -0.15560
F4488       F  0.49264014  0.01159028  0.88499101    -0.13200
C4489       C  0.43075607  0.13267378  0.85194812     0.24810
C4490       C  0.44065750  0.14411606  0.83403809    -0.23290
C4491       C  0.45162587  0.13195654  0.81708424     0.19720
C4492       C  0.45389626  0.10860513  0.81875644     0.24760
C4493       C  0.44499493  0.09713205  0.83735714    -0.23240
C4494       C  0.43259504  0.10933791  0.85344359     0.19660
F4495       F  0.42281701  0.09868820  0.87105818    -0.13200
F4496       F  0.41990158  0.14417275  0.86831864    -0.15560
F4497       F  0.46600287  0.09751007  0.80301179    -0.15560
F4498       F  0.46107051  0.14288433  0.79945069    -0.13200
C4499       C  0.39739603  0.63314931  0.82174621     0.24810
C4500       C  0.41476974  0.64483093  0.81125801    -0.23290
C4501       C  0.43145472  0.63291094  0.79973216     0.19720
C4502       C  0.43003014  0.60955692  0.79748080     0.24760
C4503       C  0.41196091  0.59779278  0.80698420    -0.23240
C4504       C  0.39615421  0.60977535  0.81993300     0.19660
F4505       F  0.37907107  0.59887942  0.83030321    -0.13200
F4506       F  0.38129735  0.64443368  0.83314078    -0.15560
F4507       F  0.44547829  0.59873556  0.78479968    -0.15560
F4508       F  0.44862436  0.64406652  0.78978710    -0.13200
C4509       C  0.46205970  0.80166776  0.68166917     0.24810
C4510       C  0.44355454  0.79060680  0.69143368    -0.23290
C4511       C  0.42804922  0.77987801  0.67711018     0.19720
C4512       C  0.43077473  0.78073764  0.65369316     0.24760
C4513       C  0.44907684  0.79215582  0.64424845    -0.23240
C4514       C  0.46484529  0.80218159  0.65851464     0.19660
F4515       F  0.48311935  0.81271083  0.64993112    -0.13200
F4516       F  0.47786348  0.81191783  0.69442166    -0.15560
F4517       F  0.41517705  0.77107810  0.64026930    -0.15560
F4518       F  0.41017490  0.76869838  0.68565308    -0.13200
C4519       C  0.48482158  0.86910212  0.76963400     0.24810
C4520       C  0.49565417  0.85499952  0.78527861    -0.23290
C4521       C  0.50669378  0.86503767  0.80363490     0.19720
C4522       C  0.50713031  0.88825996  0.80612532     0.24760
C4523       C  0.49705956  0.90231386  0.79016163    -0.23240
C4524       C  0.48561257  0.89257116  0.77204143     0.19660
F4525       F  0.47585140  0.90575272  0.75629700    -0.13200
F4526       F  0.47360527  0.86029407  0.75190591    -0.15560
F4527       F  0.51763712  0.89711773  0.82429253    -0.15560
F4528       F  0.51697943  0.85248284  0.81956819    -0.13200
C4529       C  0.33434503  0.72390854  0.76813228     0.24810
C4530       C  0.34860638  0.73887028  0.75645789    -0.23290
C4531       C  0.33882925  0.75666544  0.74433767     0.19720
C4532       C  0.31576741  0.75929460  0.74372246     0.24760
C4533       C  0.30152219  0.74386503  0.75447514    -0.23240
C4534       C  0.31100064  0.72633620  0.76702452     0.19660
F4535       F  0.29770458  0.71116911  0.77760941    -0.13200
F4536       F  0.34287648  0.70688777  0.78057567    -0.15560
F4537       F  0.30726796  0.77706241  0.73229000    -0.15560
F4538       F  0.35147790  0.77186838  0.73299868    -0.13200
C4539       C  0.47901514  0.69489843  0.91392231     0.24810
C4540       C  0.46757821  0.71167420  0.90226380    -0.23290
C4541       C  0.45490460  0.72753618  0.91415580     0.19720
C4542       C  0.45261147  0.72591321  0.93744601     0.24760
C4543       C  0.46304633  0.70836834  0.94916380    -0.23240
C4544       C  0.47692590  0.69333412  0.93725381     0.19660
F4545       F  0.48792514  0.67668734  0.94816605    -0.13200
F4546       F  0.49145483  0.67955922  0.90263897    -0.15560
F4547       F  0.43898774  0.74055188  0.94826574    -0.15560
F4548       F  0.44396415  0.74407252  0.90301787    -0.13200
C4549       C  0.81684741  0.71426661  0.80437364     0.24810
C4550       C  0.80179000  0.71158381  0.78659173    -0.23290
C4551       C  0.80976930  0.71121498  0.76441729     0.19720
C4552       C  0.83265292  0.71358631  0.76007140     0.24760
C4553       C  0.84778259  0.71584212  0.77791538    -0.23240
C4554       C  0.83968945  0.71632831  0.80009006     0.19660
F4555       F  0.85388901  0.71932759  0.81759399    -0.13200
F4556       F  0.80938967  0.71454513  0.82590379    -0.15560
F4557       F  0.84012712  0.71290066  0.73856835    -0.15560
F4558       F  0.79546413  0.70776452  0.74710154    -0.13200
C4559       C  0.73229398  0.64607974  0.82302568     0.24810
C4560       C  0.74655267  0.65282264  0.80549175    -0.23290
C4561       C  0.75739126  0.63617929  0.79271239     0.19720
C4562       C  0.75449990  0.61344700  0.79760787     0.24760
C4563       C  0.74014163  0.60654871  0.81508814    -0.23240
C4564       C  0.72901234  0.62322428  0.82770228     0.19660
F4565       F  0.71486083  0.61752435  0.84459676    -0.13200
F4566       F  0.72185396  0.66159487  0.83599332    -0.15560
F4567       F  0.76535718  0.59823531  0.78460650    -0.15560
F4568       F  0.77046924  0.64186387  0.77494115    -0.13200
C4569       C  0.70780982  0.86423052  0.74472922     0.24810
C4570       C  0.69392913  0.84753230  0.75398179    -0.23290
C4571       C  0.67528192  0.85408459  0.76674418     0.19720
C4572       C  0.67047303  0.87692328  0.76993188     0.24760
C4573       C  0.68415018  0.89367834  0.76023702    -0.23240
C4574       C  0.70290500  0.88691897  0.74758398     0.19660
F4575       F  0.71709155  0.90221595  0.73840809    -0.13200
F4576       F  0.72650955  0.85857348  0.73310990    -0.15560
F4577       F  0.65233981  0.88255323  0.78239862    -0.15560
F4578       F  0.66135995  0.83839986  0.77563642    -0.13200
C4579       C  0.69631588  0.79609275  0.68053520     0.24810
C4580       C  0.71221813  0.79028483  0.69679313    -0.23290
C4581       C  0.73295369  0.78169387  0.68991296     0.19720
C4582       C  0.73780297  0.77921146  0.66702773     0.24760
C4583       C  0.72198096  0.78539958  0.65067477    -0.23240
C4584       C  0.70111660  0.79375889  0.65776682     0.19660
F4585       F  0.68495588  0.79906552  0.64271883    -0.13200
F4586       F  0.67595254  0.80395294  0.68677658    -0.15560
F4587       F  0.75809957  0.77114075  0.66089925    -0.15560
F4588       F  0.74877366  0.77644496  0.70532405    -0.13200
C4589       C  0.67863263  0.72450488  0.89947608     0.24810
C4590       C  0.66663656  0.74364741  0.89290164    -0.23290
C4591       C  0.65761452  0.75775238  0.90950447     0.19720
C4592       C  0.65969797  0.75240845  0.93216237     0.24760
C4593       C  0.67131348  0.73298087  0.93890715    -0.23240
C4594       C  0.68106063  0.71926345  0.92225914     0.19660
F4595       F  0.69264049  0.70054097  0.92792852    -0.13200
F4596       F  0.68722237  0.71035142  0.88384450    -0.15560
F4597       F  0.65065820  0.76666609  0.94745476    -0.15560
F4598       F  0.64659774  0.77681249  0.90374135    -0.13200
C4599       C  0.59775325  0.77195197  0.82473085     0.24810
C4600       C  0.60728186  0.75418426  0.83687878    -0.23290
C4601       C  0.59316580  0.73846160  0.84733040     0.19720
C4602       C  0.57011541  0.74107535  0.84689921     0.24760
C4603       C  0.56029350  0.75919781  0.83531250    -0.23240
C4604       C  0.57443797  0.77439729  0.82383032     0.19660
F4605       F  0.56582707  0.79171582  0.81185910    -0.13200
F4606       F  0.61098364  0.78737018  0.81442458    -0.15560
F4607       F  0.55753073  0.72558431  0.85791611    -0.15560
F4608       F  0.60179324  0.72050486  0.85836374    -0.13200
loop_ 
_geom_bond_atom_site_label_1 
_geom_bond_atom_site_label_2 
_geom_bond_distance 
_geom_bond_site_symmetry_2 
_ccdc_geom_bond_type 
C1            C2   1.404       .  A
C1            C6   1.395       .  A
C1         C4590   1.482       .  S
C2            C3   1.411       .  A
C2            H7   1.083       .  S
C3            C4   1.413       .  A
C3           C10   1.487       .  S
C4            C5   1.405       .  A
C4            H8   1.083       .  S
C5            C6   1.397       .  A
C5         C4600   1.482       .  S
C6            H9   1.084       .  S
C10          C11   1.405       .  A
C10          C15   1.407       .  A
C11          C12   1.407       .  A
C11          H16   1.083       .  S
C12          C13   1.409       .  A
C12          C21   1.491       .  S
C13          C14   1.409       .  A
C13          H17   1.083       .  S
C14          C15   1.407       .  A
C14          C30   1.493       .  S
C15          H18   1.083       .  S
C19          C20   1.407       .  A
C19          C24   1.398       .  A
C19        C4570   1.486       .  S
C20          C21   1.413       .  A
C20          H25   1.083       .  S
C21          C22   1.410       .  A
C22          C23   1.403       .  A
C22          H26   1.083       .  S
C23          C24   1.396       .  A
C23        C4580   1.478       .  S
C24          H27   1.084       .  S
C28          C29   1.401       .  A
C28          C33   1.393       .  A
C28        C4550   1.471       .  S
C29          C30   1.410       .  A
C29          H34   1.083       .  S
C30          C31   1.414       .  A
C31          C32   1.410       .  A
C31          H35   1.083       .  S
C32          C33   1.400       .  A
C32        C4560   1.490       .  S
C33          H36   1.084       .  S
O37         Mg39   2.132       .  S
O37         Mg45   2.115       .  S
O37          C72   1.240       .  S
C38          H77   1.081       .  S
C38          O51   1.240       .  S
C38          O75   1.275       .  A
Mg39         O68   2.125       .  S
Mg39         O83   2.336       .  S
Mg39         O79   2.263       .  S
Mg39         O50   2.303       .  S
O40         Mg82   2.114       .  S
O40         Mg65   2.120       .  S
O40          C61   1.239       .  S
O41          C72   1.275       .  A
O41         Mg65   2.315       .  S
C42        C4540   1.465       .  S
C42          O44   1.270       .  A
C42          O56   1.272       .  A
O43          C71   1.273       .  A
O43         Mg45   2.306       .  S
O44         Mg76   2.254       .  S
Mg45         O51   2.131       .  S
Mg45         O59   2.240       .  S
Mg45         O47   2.334       .  S
C46        C4603   1.489       .  S
C46          O84   1.269       .  A
C46          O52   1.275       .  A
O47          C54   1.276       .  A
H48          C61   1.081       .  S
C49          H74   1.081       .  S
C49          O63   1.240       .  S
C49          O64   1.273       .  A
O50          C73   1.273       .  A
O51         Mg65   2.111       .  S
O52         Mg82   2.325       .  S
C53        C4520   1.490       .  S
C53          O66   1.269       .  A
C53          O58   1.275       .  A
C54        C4510   1.490       .  S
C54          O81   1.268       .  A
Mg55         O62   2.115       .  S
Mg55         O63   2.119       .  S
Mg55         O56   2.303       .  S
Mg55         O57   2.308       .  S
Mg55         O84   2.231       .  S
O57          C61   1.273       .  A
O58         Mg65   2.324       .  S
O59          C78   1.271       .  A
O60          C80   1.273       .  A
O60         Mg76   2.303       .  S
O62         Mg76   2.127       .  S
O62          C73   1.240       .  S
O63         Mg82   2.120       .  S
O64         Mg76   2.303       .  S
Mg65         O81   2.231       .  S
O66         Mg82   2.240       .  S
H67          C72   1.081       .  S
O68         Mg76   2.121       .  S
O68          C71   1.239       .  S
H69          C71   1.081       .  S
H70          C73   1.081       .  S
O75         Mg82   2.316       .  S
C78        C4530   1.493       .  S
C78          O83   1.277       .  A
O79          C80   1.272       .  A
C80        C4500   1.466       .  S
C85          C86   1.407       .  A
C85          C90   1.397       .  A
C85        C4493   1.487       .  S
C86          C87   1.414       .  A
C86          H91   1.082       .  S
C87          C88   1.415       .  A
C87          C94   1.497       .  S
C88          C89   1.409       .  A
C88          H92   1.082       .  S
C89          C90   1.399       .  A
C89        C4480   1.496       .  S
C90          H93   1.084       .  S
C94          C95   1.409       .  A
C94          C99   1.407   1_545  A
C95          C96   1.412   1_545  A
C95         H100   1.083       .  S
C96          C97   1.409       .  A
C96         C105   1.496       .  S
C97          C98   1.406       .  A
C97         H101   1.083       .  S
C98          C99   1.407       .  A
C98         C114   1.491       .  S
C99         H102   1.083       .  S
C103        C104   1.408       .  A
C103        C108   1.396   1_565  A
C103       C4470   1.487       .  S
C104        C105   1.415       .  A
C104        H109   1.082       .  S
C105        C106   1.412   1_565  A
C106        C107   1.407       .  A
C106        H110   1.083       .  S
C107        C108   1.397       .  A
C107       C4460   1.488       .  S
C108        H111   1.084       .  S
C112        C113   1.407       .  A
C112        C117   1.397       .  A
C112       C4523   1.483       .  S
C113        C114   1.414       .  A
C113        H118   1.083       .  S
C114        C115   1.413       .  A
C115        C116   1.403       .  A
C115        H119   1.083       .  S
C116        C117   1.394       .  A
C116       C4450   1.479       .  S
C117        H120   1.085       .  S
C121        C122   1.407       .  A
C121        C126   1.396       .  A
C121       C4440   1.485       .  S
C122        C123   1.416       .  A
C122        H127   1.083       .  S
C123        C124   1.414       .  A
C123        C132   1.492       .  S
C124        C125   1.403       .  A
C124        H128   1.083       .  S
C125        C126   1.394       .  A
C125       C4430   1.480       .  S
C126        H129   1.085       .  S
C130        C131   1.410       .  A
C130        C135   1.412       .  A
C130        C150   1.497       .  S
C131        C132   1.406       .  A
C131        H136   1.083       .  S
C132        C133   1.406       .  A
C133        C134   1.408       .  A
C133        H137   1.083       .  S
C134        C135   1.409       .  A
C134        C141   1.494       .  S
C135        H138   1.083       .  S
C139        C140   1.401       .  A
C139        C144   1.392   1_554  A
C139       C4410   1.473       .  S
C140        C141   1.413       .  A
C140        H145   1.083       .  S
C141        C142   1.416   1_554  A
C142        C143   1.410       .  A
C142        H146   1.083       .  S
C143        C144   1.400       .  A
C143       C4423   1.486       .  S
C144        H147   1.085       .  S
C148        C149   1.411       .  A
C148        C153   1.402       .  A
C148       C4403   1.494       .  S
C149        C150   1.412       .  A
C149        H154   1.082       .  S
C150        C151   1.411       .  A
C151        C152   1.404       .  A
C151        H155   1.083       .  S
C152        C153   1.398       .  A
C152       C4390   1.479       .  S
C153        H156   1.083       .  S
O157       Mg159   2.118       .  S
O157       Mg165   2.132       .  S
O157        C192   1.239       .  S
C158        H197   1.081       .  S
C158        O171   1.240       .  S
C158        O195   1.273       .  A
Mg159       O188   2.138       .  S
Mg159       O203   2.293       .  S
Mg159       O199   2.260       .  S
Mg159       O170   2.299   1_545  S
O160       Mg202   2.133       .  S
O160       Mg185   2.121       .  S
O160        C181   1.240       .  S
O161        C192   1.273   1_565  A
O161       Mg185   2.306       .  S
C162       C4380   1.484       .  S
C162        O164   1.273       .  A
C162        O176   1.276       .  A
O163        C191   1.274       .  A
O163       Mg165   2.305       .  S
O164       Mg196   2.268   1_565  S
Mg165       O171   2.119       .  S
Mg165       O179   2.264       .  S
Mg165       O167   2.297       .  S
C166       C4360   1.486       .  S
C166        O204   1.272       .  A
C166        O172   1.275       .  A
O167        C174   1.275       .  A
H168        C181   1.081       .  S
C169        H194   1.081       .  S
C169        O183   1.239       .  S
C169        O184   1.272   1_565  A
O170        C193   1.272       .  A
O171       Mg185   2.136   1_545  S
O172       Mg202   2.302       .  S
C173       C4350   1.468       .  S
C173        O186   1.270       .  A
C173        O178   1.276       .  A
C174       C4340   1.483       .  S
C174        O201   1.273       .  A
Mg175       O182   2.116       .  S
Mg175       O183   2.127       .  S
Mg175       O176   2.301       .  S
Mg175       O177   2.305       .  S
Mg175       O204   2.265       .  S
O177        C181   1.274       .  A
O178       Mg185   2.314       .  S
O179        C198   1.271       .  A
O180        C200   1.275       .  A
O180       Mg196   2.296       .  S
O182       Mg196   2.136   1_565  S
O182        C193   1.239       .  S
O183       Mg202   2.110       .  S
O184       Mg196   2.298       .  S
Mg185       O201   2.271   1_565  S
O186       Mg202   2.243       .  S
H187        C192   1.081       .  S
O188       Mg196   2.122       .  S
O188        C191   1.240       .  S
H189        C191   1.081       .  S
H190        C193   1.081       .  S
O195       Mg202   2.300   1_545  S
C198       C4370   1.489       .  S
C198        O203   1.274       .  A
O199        C200   1.271       .  A
C200       C4463   1.488       .  S
C205        C206   1.394       .  A
C205        C210   1.403       .  A
C205       C4330   1.479       .  S
C206        C207   1.398       .  A
C206        H211   1.084       .  S
C207        C208   1.410       .  A
C207       C4320   1.492       .  S
C208        C209   1.415       .  A
C208        H212   1.083       .  S
C209        C210   1.411       .  A
C209        C223   1.494       .  S
C210        H213   1.083       .  S
C214        C215   1.401       .  A
C214        C219   1.393   1_655  A
C214       C4303   1.471       .  S
C215        C216   1.411       .  A
C215        H220   1.083       .  S
C216        C217   1.413   1_655  A
C216        C225   1.491       .  S
C217        C218   1.409       .  A
C217        H221   1.083       .  S
C218        C219   1.399       .  A
C218       C4313   1.487       .  S
C219        H222   1.085       .  S
C223        C224   1.408       .  A
C223        C228   1.409       .  A
C224        C225   1.407       .  A
C224        H229   1.083       .  S
C225        C226   1.407       .  A
C226        C227   1.407       .  A
C226        H230   1.083       .  S
C227        C228   1.409       .  A
C227        C234   1.495       .  S
C228        H231   1.082       .  S
C232        C233   1.406       .  A
C232        C237   1.396       .  A
C232       C4290   1.484       .  S
C233        C234   1.411       .  A
C233        H238   1.082       .  S
C234        C235   1.413       .  A
C235        C236   1.407       .  A
C235        H239   1.083       .  S
C236        C237   1.398       .  A
C236       C4280   1.488       .  S
C237        H240   1.084       .  S
O241       Mg243   2.120       .  S
O241       Mg249   2.132       .  S
O241        C276   1.239       .  S
C242        H281   1.081       .  S
C242        O255   1.239       .  S
C242        O279   1.272       .  A
Mg243       O272   2.129       .  S
Mg243       O287   2.302       .  S
Mg243       O283   2.260       .  S
Mg243       O254   2.305       .  S
O244       Mg286   2.137       .  S
O244       Mg269   2.122       .  S
O244        C265   1.240       .  S
O245        C276   1.273       .  A
O245       Mg269   2.305       .  S
C246       C4230   1.486       .  S
C246        O248   1.272       .  A
C246        O260   1.274       .  A
O247        C275   1.274       .  A
O247       Mg249   2.305       .  S
O248       Mg280   2.268       .  S
Mg249       O255   2.121       .  S
Mg249       O263   2.265       .  S
Mg249       O251   2.297       .  S
C250       C4260   1.488       .  S
C250        O288   1.271       .  A
C250        O256   1.275       .  A
O251        C258   1.275       .  A
H252        C265   1.081       .  S
C253        H278   1.081       .  S
C253        O267   1.240       .  S
C253        O268   1.273       .  A
O254        C277   1.273       .  A
O255       Mg269   2.137       .  S
O256       Mg286   2.303       .  S
C257       C4240   1.468       .  S
C257        O270   1.271       .  A
C257        O262   1.276       .  A
C258       C4250   1.481       .  S
C258        O285   1.272       .  A
Mg259       O266   2.116       .  S
Mg259       O267   2.130       .  S
Mg259       O260   2.295       .  S
Mg259       O261   2.304       .  S
Mg259       O288   2.259       .  S
O261        C265   1.274       .  A
O262       Mg269   2.314       .  S
O263        C282   1.272       .  A
O264        C284   1.275       .  A
O264       Mg280   2.311       .  S
O266       Mg280   2.131       .  S
O266        C277   1.239       .  S
O267       Mg286   2.117       .  S
O268       Mg280   2.305       .  S
Mg269       O285   2.267       .  S
O270       Mg286   2.251       .  S
H271        C276   1.081       .  S
O272       Mg280   2.124       .  S
O272        C275   1.240       .  S
H273        C275   1.081       .  S
H274        C277   1.081       .  S
O279       Mg286   2.298       .  S
C282       C4563   1.491       .  S
C282        O287   1.275       .  A
O283        C284   1.270       .  A
C284       C4270   1.466       .  S
C289        C290   1.411       .  A
C289        C294   1.400       .  A
C289       C4220   1.490       .  S
C290        C291   1.413       .  A
C290        H295   1.082       .  S
C291        C292   1.411       .  A
C291        C300   1.495       .  S
C292        C293   1.401       .  A
C292        H296   1.083       .  S
C293        C294   1.394       .  A
C293       C4210   1.471       .  S
C294        H297   1.084       .  S
C298        C299   1.407       .  A
C298        C303   1.408       .  A
C298        C320   1.494       .  S
C299        C300   1.408       .  A
C299        H304   1.083       .  S
C300        C301   1.409       .  A
C301        C302   1.409       .  A
C301        H305   1.083       .  S
C302        C303   1.409       .  A
C302        C309   1.495       .  S
C303        H306   1.083       .  S
C307        C308   1.408       .  A
C307        C312   1.397       .  A
C307       C4190   1.489       .  S
C308        C309   1.414       .  A
C308        H313   1.083       .  S
C309        C310   1.414       .  A
C310        C311   1.406       .  A
C310        H314   1.083       .  S
C311        C312   1.396       .  A
C311       C4200   1.485       .  S
C312        H315   1.084       .  S
C316        C317   1.397       .  A
C316        C321   1.407   1_556  A
C316       C4180   1.484   1_556  S
C317        C318   1.395       .  A
C317        H322   1.085       .  S
C318        C319   1.403       .  A
C318       C4253   1.477       .  S
C319        C320   1.412   1_556  A
C319        H323   1.083       .  S
C320        C321   1.414       .  A
C321        H324   1.083       .  S
C325        C326   1.409       .  A
C325        C330   1.397       .  A
C325       C4173   1.492       .  S
C326        C327   1.416       .  A
C326        H331   1.083       .  S
C327        C328   1.415       .  A
C327        C338   1.495       .  S
C328        C329   1.405       .  A
C328        H332   1.083       .  S
C329        C330   1.393       .  A
C329       C4160   1.485       .  S
C330        H333   1.084       .  S
C334        C335   1.407       .  A
C334        C339   1.409       .  A
C334        C354   1.493       .  S
C335        C336   1.408       .  A
C335        H340   1.083       .  S
C336        C337   1.410       .  A
C336        C345   1.495       .  S
C337        C338   1.408       .  A
C337        H341   1.083       .  S
C338        C339   1.408       .  A
C339        H342   1.083       .  S
C343        C344   1.407       .  A
C343        C348   1.398       .  A
C343       C4150   1.479       .  S
C344        C345   1.414       .  A
C344        H349   1.083       .  S
C345        C346   1.412       .  A
C346        C347   1.403       .  A
C346        H350   1.083       .  S
C347        C348   1.394       .  A
C347       C4140   1.472       .  S
C348        H351   1.085       .  S
C352        C353   1.408       .  A
C352        C357   1.396       .  A
C352       C4120   1.486       .  S
C353        C354   1.416       .  A
C353        H358   1.083       .  S
C354        C355   1.414       .  A
C355        C356   1.403       .  A
C355        H359   1.083       .  S
C356        C357   1.392       .  A
C356       C4130   1.481       .  S
C357        H360   1.085       .  S
O361       Mg363   2.115       .  S
O361       Mg369   2.133       .  S
O361        C396   1.239       .  S
C362        H401   1.081       .  S
C362        O375   1.239       .  S
C362        O399   1.273       .  A
Mg363       O392   2.136       .  S
Mg363       O407   2.293       .  S
Mg363       O403   2.260       .  S
Mg363       O374   2.301       .  S
O364       Mg406   2.135       .  S
O364       Mg389   2.119       .  S
O364        C385   1.239       .  S
O365        C396   1.273       .  A
O365       Mg389   2.303       .  S
C366       C4090   1.490       .  S
C366        O368   1.271       .  A
C366        O380   1.276       .  A
O367        C395   1.273       .  A
O367       Mg369   2.303       .  S
O368       Mg400   2.261       .  S
Mg369       O375   2.120       .  S
Mg369       O383   2.267       .  S
Mg369       O371   2.295       .  S
C370       C4060   1.490       .  S
C370        O408   1.272       .  A
C370        O376   1.276       .  A
O371        C378   1.275       .  A
H372        C385   1.081       .  S
C373        H398   1.081       .  S
C373        O387   1.239       .  S
C373        O388   1.272       .  A
O374        C397   1.273       .  A
O375       Mg389   2.134       .  S
O376       Mg406   2.302       .  S
C377       C4070   1.488       .  S
C377        O390   1.273       .  A
C377        O382   1.275       .  A
C378       C4100   1.483       .  S
C378        O405   1.272       .  A
Mg379       O386   2.118       .  S
Mg379       O387   2.137       .  S
Mg379       O380   2.305       .  S
Mg379       O381   2.301       .  S
Mg379       O408   2.264       .  S
O381        C385   1.272       .  A
O382       Mg389   2.297       .  S
O383        C402   1.272       .  A
O384        C404   1.274       .  A
O384       Mg400   2.292       .  S
O386       Mg400   2.137       .  S
O386        C397   1.239       .  S
O387       Mg406   2.121       .  S
O388       Mg400   2.300       .  S
Mg389       O405   2.263       .  S
O390       Mg406   2.269       .  S
H391        C396   1.081       .  S
O392       Mg400   2.118       .  S
O392        C395   1.239       .  S
H393        C395   1.081       .  S
H394        C397   1.081       .  S
O399       Mg406   2.303       .  S
C402       C4110   1.481       .  S
C402        O407   1.274       .  A
O403        C404   1.271       .  A
C404       C4080   1.486       .  S
C409        C410   1.405       .  A
C409        C414   1.397       .  A
C409       C4363   1.483       .  S
C410        C411   1.411       .  A
C410        H415   1.083       .  S
C411        C412   1.413       .  A
C411        C420   1.494       .  S
C412        C413   1.409       .  A
C412        H416   1.083       .  S
C413        C414   1.400       .  A
C413       C4050   1.492       .  S
C414        H417   1.083       .  S
C418        C419   1.409       .  A
C418        C423   1.406       .  A
C418        C431   1.491       .  S
C419        C420   1.408       .  A
C419        H424   1.083       .  S
C420        C421   1.408       .  A
C421        C422   1.408       .  A
C421        H425   1.083       .  S
C422        C423   1.408       .  A
C422        C438   1.491       .  S
C423        H426   1.083       .  S
C427        C428   1.398       .  A
C427        C432   1.409       .  A
C427       C4533   1.487       .  S
C428        C429   1.394       .  A
C428        H433   1.085       .  S
C429        C430   1.402       .  A
C429       C4103   1.479       .  S
C430        C431   1.411       .  A
C430        H434   1.083       .  S
C431        C432   1.416       .  A
C432        H435   1.083       .  S
C436        C437   1.403       .  A
C436        C441   1.394       .  A
C436       C4033   1.473       .  S
C437        C438   1.412       .  A
C437        H442   1.083       .  S
C438        C439   1.413       .  A
C439        C440   1.406       .  A
C439        H443   1.083       .  S
C440        C441   1.396       .  A
C440       C4040   1.481       .  S
C441        H444   1.085       .  S
O445       Mg447   2.123       .  S
O445       Mg453   2.133       .  S
O445        C480   1.239       .  S
C446        H485   1.081       .  S
C446        O459   1.240       .  S
C446        O483   1.273       .  A
Mg447       O476   2.126       .  S
Mg447       O491   2.292       .  S
Mg447       O487   2.259       .  S
Mg447       O458   2.306       .  S
O448       Mg490   2.131       .  S
O448       Mg473   2.121       .  S
O448        C469   1.239       .  S
O449        C480   1.273       .  A
O449       Mg473   2.305       .  S
C450       C3980   1.488       .  S
C450        O452   1.272       .  A
C450        O464   1.274       .  A
O451        C479   1.274       .  A
O451       Mg453   2.308       .  S
O452       Mg484   2.265       .  S
Mg453       O459   2.118       .  S
Mg453       O467   2.265       .  S
Mg453       O455   2.303       .  S
C454       C4020   1.466       .  S
C454        O492   1.270       .  A
C454        O460   1.274       .  A
O455        C462   1.276       .  A
H456        C469   1.081       .  S
C457        H482   1.081       .  S
C457        O471   1.239       .  S
C457        O472   1.272       .  A
O458        C481   1.273       .  A
O459       Mg473   2.135       .  S
O460       Mg490   2.310       .  S
C461       C3990   1.467       .  S
C461        O474   1.270       .  A
C461        O466   1.276       .  A
C462       C4000   1.490       .  S
C462        O489   1.273       .  A
Mg463       O470   2.117       .  S
Mg463       O471   2.126       .  S
Mg463       O464   2.291       .  S
Mg463       O465   2.304       .  S
Mg463       O492   2.260       .  S
O465        C469   1.273       .  A
O466       Mg473   2.315       .  S
O467        C486   1.271       .  A
O468        C488   1.274       .  A
O468       Mg484   2.304       .  S
O470       Mg484   2.134       .  S
O470        C481   1.239       .  S
O471       Mg490   2.115       .  S
O472       Mg484   2.300       .  S
Mg473       O489   2.268       .  S
O474       Mg490   2.241       .  S
H475        C480   1.081       .  S
O476       Mg484   2.125       .  S
O476        C479   1.240       .  S
H477        C479   1.081       .  S
H478        C481   1.081       .  S
O483       Mg490   2.300       .  S
C486       C4583   1.482       .  S
C486        O491   1.274       .  A
O487        C488   1.270       .  A
C488       C4010   1.465       .  S
C493        C494   1.404       .  A
C493        C498   1.396       .  A
C493       C3963   1.478       .  S
C494        C495   1.413       .  A
C494        H499   1.083       .  S
C495        C496   1.415       .  A
C495        C504   1.500       .  S
C496        C497   1.411       .  A
C496        H500   1.082       .  S
C497        C498   1.399       .  A
C497       C3970   1.494       .  S
C498        H501   1.084       .  S
C502        C503   1.410       .  A
C502        C507   1.408       .  A
C502        C513   1.498       .  S
C503        C504   1.411       .  A
C503        H508   1.082       .  S
C504        C505   1.411       .  A
C505        C506   1.409       .  A
C505        H509   1.082       .  S
C506        C507   1.407       .  A
C506        C522   1.496       .  S
C507        H510   1.083       .  S
C511        C512   1.412       .  A
C511        C516   1.402       .  A
C511       C3950   1.493       .  S
C512        C513   1.413       .  A
C512        H517   1.082       .  S
C513        C514   1.411       .  A
C514        C515   1.402       .  A
C514        H518   1.083       .  S
C515        C516   1.395       .  A
C515       C3940   1.474       .  S
C516        H519   1.084       .  S
C520        C521   1.407       .  A
C520        C525   1.398       .  A
C520       C3920   1.484       .  S
C521        C522   1.413       .  A
C521        H526   1.083       .  S
C522        C523   1.414       .  A
C523        C524   1.405       .  A
C523        H527   1.083       .  S
C524        C525   1.394       .  A
C524       C3930   1.477       .  S
C525        H528   1.085       .  S
O529       Mg531   2.130       .  S
O529       Mg537   2.114       .  S
O529        C564   1.240       .  S
C530        H569   1.081       .  S
C530        O543   1.240       .  S
C530        O567   1.275       .  A
Mg531       O560   2.122       .  S
Mg531       O575   2.337       .  S
Mg531       O571   2.251       .  S
Mg531       O542   2.303       .  S
O532       Mg574   2.122       .  S
O532       Mg557   2.121       .  S
O532        C553   1.240       .  S
O533        C564   1.274       .  A
O533       Mg557   2.309       .  S
C534       C3903   1.466       .  S
C534        O536   1.271       .  A
C534        O548   1.273       .  A
O535        C563   1.273       .  A
O535       Mg537   2.305       .  S
O536       Mg568   2.252       .  S
Mg537       O543   2.124       .  S
Mg537       O551   2.232       .  S
Mg537       O539   2.306       .  S
C538       C4443   1.494       .  S
C538        O576   1.269       .  A
C538        O544   1.278       .  A
O539        C546   1.272       .  A
H540        C553   1.081       .  S
C541        H566   1.081       .  S
C541        O555   1.240       .  S
C541        O556   1.274       .  A
O542        C565   1.274       .  A
O543       Mg557   2.125       .  S
O544       Mg574   2.346       .  S
C545       C4163   1.465       .  S
C545        O558   1.272       .  A
C545        O550   1.273       .  A
C546       C3890   1.465       .  S
C546        O573   1.269       .  A
Mg547       O554   2.122       .  S
Mg547       O555   2.116       .  S
Mg547       O548   2.305       .  S
Mg547       O549   2.308       .  S
Mg547       O576   2.235       .  S
O549        C553   1.274       .  A
O550       Mg557   2.306       .  S
O551        C570   1.268       .  A
O552        C572   1.276       .  A
O552       Mg568   2.320       .  S
O554       Mg568   2.134       .  S
O554        C565   1.240       .  S
O555       Mg574   2.128       .  S
O556       Mg568   2.305       .  S
Mg557       O573   2.256       .  S
O558       Mg574   2.257       .  S
H559        C564   1.081       .  S
O560       Mg568   2.114       .  S
O560        C563   1.239       .  S
H561        C563   1.081       .  S
H562        C565   1.081       .  S
O567       Mg574   2.312       .  S
C570       C3910   1.488       .  S
C570        O575   1.277       .  A
O571        C572   1.272       .  A
C572       C3933   1.471       .  S
O577       Mg579   2.124       .  S
O577       Mg585   2.133       .  S
O577        C612   1.240       .  S
C578        H617   1.081       .  S
C578        O591   1.240       .  S
C578        O615   1.274       .  A
Mg579       O608   2.131       .  S
Mg579       O623   2.300       .  S
Mg579       O619   2.271       .  S
Mg579       O590   2.301       .  S
O580       Mg622   2.129       .  S
O580       Mg605   2.130       .  S
O580        C601   1.240       .  S
O581        C612   1.274   1_556  A
O581       Mg605   2.308   1_556  S
C582       C3953   1.470       .  S
C582        O584   1.271       .  A
C582        O596   1.276       .  A
O583        C611   1.273       .  A
O583       Mg585   2.302       .  S
O584       Mg616   2.252       .  S
Mg585       O591   2.120       .  S
Mg585       O599   2.260       .  S
Mg585       O587   2.306   1_554  S
C586       C4193   1.489       .  S
C586        O624   1.271       .  A
C586        O592   1.276       .  A
O587        C594   1.275       .  A
H588        C601   1.081       .  S
C589        H614   1.081       .  S
C589        O603   1.239       .  S
C589        O604   1.272       .  A
O590        C613   1.273       .  A
O591       Mg605   2.126       .  S
O592       Mg622   2.306       .  S
C593       C4413   1.473       .  S
C593        O606   1.272       .  A
C593        O598   1.275       .  A
C594       C3863   1.482       .  S
C594        O621   1.272       .  A
Mg595       O602   2.120       .  S
Mg595       O603   2.138       .  S
Mg595       O596   2.316       .  S
Mg595       O597   2.308       .  S
Mg595       O624   2.259       .  S
O597        C601   1.274       .  A
O598       Mg605   2.308       .  S
O599        C618   1.271       .  A
O600        C620   1.276       .  A
O600       Mg616   2.304       .  S
O602       Mg616   2.135       .  S
O602        C613   1.240       .  S
O603       Mg622   2.126       .  S
O604       Mg616   2.300       .  S
Mg605       O621   2.273   1_554  S
O606       Mg622   2.272       .  S
H607        C612   1.081   1_556  S
O608       Mg616   2.113       .  S
O608        C611   1.239       .  S
H609        C611   1.081       .  S
H610        C613   1.081       .  S
O615       Mg622   2.309       .  S
C618       C3870   1.484       .  S
C618        O623   1.275       .  A
O619        C620   1.273       .  A
C620       C3880   1.489       .  S
C625        C626   1.407       .  A
C625        C630   1.399       .  A
C625       C4063   1.488       .  S
C626        C627   1.412   1_455  A
C626        H631   1.083       .  S
C627        C628   1.413       .  A
C627        C636   1.497       .  S
C628        C629   1.409   1_655  A
C628        H632   1.082       .  S
C629        C630   1.398       .  A
C629       C3850   1.492   1_455  S
C630        H633   1.084       .  S
C634        C635   1.409       .  A
C634        C639   1.408       .  A
C634        C654   1.495       .  S
C635        C636   1.410       .  A
C635        H640   1.082       .  S
C636        C637   1.409       .  A
C637        C638   1.408       .  A
C637        H641   1.083       .  S
C638        C639   1.406       .  A
C638        C647   1.492       .  S
C639        H642   1.083       .  S
C643        C644   1.398       .  A
C643        C648   1.405       .  A
C643       C3840   1.486       .  S
C644        C645   1.399       .  A
C644        H649   1.083       .  S
C645        C646   1.407       .  A
C645       C4003   1.487       .  S
C646        C647   1.412       .  A
C646        H650   1.083       .  S
C647        C648   1.410       .  A
C648        H651   1.083       .  S
C652        C653   1.404       .  A
C652        C657   1.396       .  A
C652       C3830   1.477       .  S
C653        C654   1.411       .  A
C653        H658   1.083       .  S
C654        C655   1.412       .  A
C655        C656   1.409       .  A
C655        H659   1.082       .  S
C656        C657   1.400       .  A
C656       C3820   1.488       .  S
C657        H660   1.084       .  S
O661       Mg663   2.120       .  S
O661       Mg669   2.137       .  S
O661        C696   1.240       .  S
C662        H701   1.081   1_655  S
C662        O675   1.240       .  S
C662        O699   1.274   1_655  A
Mg663       O692   2.136       .  S
Mg663       O707   2.303       .  S
Mg663       O703   2.266       .  S
Mg663       O674   2.299   1_545  S
O664       Mg706   2.132   1_655  S
O664       Mg689   2.126       .  S
O664        C685   1.239       .  S
O665        C696   1.274   1_565  A
O665       Mg689   2.304       .  S
C666       C3810   1.470       .  S
C666        O668   1.271       .  A
C666        O680   1.276       .  A
O667        C695   1.272       .  A
O667       Mg669   2.298       .  S
O668       Mg700   2.257   1_565  S
Mg669       O675   2.122       .  S
Mg669       O683   2.263       .  S
Mg669       O671   2.291       .  S
C670       C3853   1.469       .  S
C670        O708   1.271       .  A
C670        O676   1.276       .  A
O671        C678   1.274       .  A
H672        C685   1.081       .  S
C673        H698   1.081       .  S
C673        O687   1.240       .  S
C673        O688   1.273   1_565  A
O674        C697   1.272       .  A
O675       Mg689   2.132   1_545  S
O676       Mg706   2.317   1_655  S
C677       C3770   1.477       .  S
C677        O690   1.272       .  A
C677        O682   1.275       .  A
C678       C3803   1.488       .  S
C678        O705   1.272       .  A
Mg679       O686   2.118       .  S
Mg679       O687   2.138       .  S
Mg679       O680   2.319       .  S
Mg679       O681   2.303       .  S
Mg679       O708   2.251       .  S
O681        C685   1.273       .  A
O682       Mg689   2.304   1_455  S
O683        C702   1.272       .  A
O684        C704   1.276       .  A
O684       Mg700   2.305       .  S
O686       Mg700   2.131   1_565  S
O686        C697   1.239       .  S
O687       Mg706   2.126   1_655  S
O688       Mg700   2.301       .  S
Mg689       O705   2.272   1_565  S
O690       Mg706   2.271       .  S
H691        C696   1.081       .  S
O692       Mg700   2.116       .  S
O692        C695   1.239       .  S
H693        C695   1.081       .  S
H694        C697   1.081       .  S
O699       Mg706   2.310   1_545  S
C702       C3790   1.489       .  S
C702        O707   1.276       .  A
O703        C704   1.273       .  A
C704       C3780   1.490       .  S
C709        C710   1.408       .  A
C709        C714   1.399       .  A
C709       C3783   1.489       .  S
C710        C711   1.413   1_545  A
C710        H715   1.083       .  S
C711        C712   1.413       .  A
C711        C720   1.495       .  S
C712        C713   1.405       .  A
C712        H716   1.083       .  S
C713        C714   1.396   1_565  A
C713       C3760   1.482       .  S
C714        H717   1.084       .  S
C718        C719   1.409       .  A
C718        C723   1.408   1_545  A
C718        C729   1.491       .  S
C719        C720   1.408   1_545  A
C719        H724   1.083       .  S
C720        C721   1.407       .  A
C721        C722   1.409       .  A
C721        H725   1.083       .  S
C722        C723   1.405       .  A
C722        C738   1.491       .  S
C723        H726   1.083   1_565  S
C727        C728   1.408       .  A
C727        C732   1.399       .  A
C727       C3740   1.490       .  S
C728        C729   1.413       .  A
C728        H733   1.083       .  S
C729        C730   1.411       .  A
C730        C731   1.403       .  A
C730        H734   1.083       .  S
C731        C732   1.397       .  A
C731       C3750   1.480       .  S
C732        H735   1.084       .  S
C736        C737   1.400       .  A
C736        C741   1.391       .  A
C736       C4013   1.470       .  S
C737        C738   1.410       .  A
C737        H742   1.083       .  S
C738        C739   1.416       .  A
C739        C740   1.409       .  A
C739        H743   1.083       .  S
C740        C741   1.398       .  A
C740       C3730   1.483       .  S
C741        H744   1.085       .  S
O745       Mg747   2.138       .  S
O745       Mg753   2.116       .  S
O745        C780   1.240       .  S
C746        H785   1.081       .  S
C746        O759   1.240       .  S
C746        O783   1.274       .  A
Mg747       O776   2.124       .  S
Mg747       O791   2.330       .  S
Mg747       O787   2.258       .  S
Mg747       O758   2.302   1_545  S
O748       Mg790   2.113       .  S
O748       Mg773   2.129       .  S
O748        C769   1.240       .  S
O749        C780   1.275   1_565  A
O749       Mg773   2.314       .  S
C750       C4473   1.467       .  S
C750        O752   1.271   1_565  A
C750        O764   1.273       .  A
O751        C779   1.274       .  A
O751       Mg753   2.308       .  S
O752       Mg784   2.256       .  S
Mg753       O759   2.123       .  S
Mg753       O767   2.235       .  S
Mg753       O755   2.311       .  S
C754       C3700   1.478       .  S
C754        O792   1.269       .  A
C754        O760   1.274       .  A
O755        C762   1.273       .  A
H756        C769   1.081       .  S
C757        H782   1.081       .  S
C757        O771   1.240       .  S
C757        O772   1.274   1_565  A
O758        C781   1.273       .  A
O759       Mg773   2.122   1_545  S
O760       Mg790   2.321       .  S
C761       C3733   1.491       .  S
C761        O774   1.270       .  A
C761        O766   1.277       .  A
C762       C3693   1.468       .  S
C762        O789   1.271   1_545  A
Mg763       O770   2.115       .  S
Mg763       O771   2.120       .  S
Mg763       O764   2.309       .  S
Mg763       O765   2.312       .  S
Mg763       O792   2.234       .  S
O765        C769   1.275       .  A
O766       Mg773   2.341       .  S
O767        C786   1.269       .  A
O768        C788   1.274       .  A
O768       Mg784   2.311       .  S
O770       Mg784   2.126   1_565  S
O770        C781   1.240       .  S
O771       Mg790   2.126       .  S
O772       Mg784   2.306       .  S
Mg773       O789   2.263       .  S
O774       Mg790   2.238       .  S
H775        C780   1.081       .  S
O776       Mg784   2.118       .  S
O776        C779   1.240       .  S
H777        C779   1.081       .  S
H778        C781   1.081       .  S
O783       Mg790   2.312   1_545  S
C786       C3710   1.485       .  S
C786        O791   1.276       .  A
O787        C788   1.272       .  A
C788       C3720   1.466       .  S
O793       Mg795   2.120       .  S
O793       Mg801   2.133   1_565  S
O793        C828   1.239       .  S
C794        H833   1.081       .  S
C794        O807   1.240       .  S
C794        O831   1.273       .  A
Mg795       O824   2.132       .  S
Mg795       O839   2.313       .  S
Mg795       O835   2.253       .  S
Mg795       O806   2.303       .  S
O796       Mg838   2.132       .  S
O796       Mg821   2.114       .  S
O796        C817   1.239       .  S
O797        C828   1.273       .  A
O797       Mg821   2.301   1_565  S
C798       C3683   1.467       .  S
C798        O800   1.271       .  A
C798        O812   1.276       .  A
O799        C827   1.273   1_545  A
O799       Mg801   2.303       .  S
O800       Mg832   2.253       .  S
Mg801       O807   2.124       .  S
Mg801       O815   2.268   1_545  S
Mg801       O803   2.308       .  S
C802       C4483   1.493       .  S
C802        O840   1.273       .  A
C802        O808   1.276       .  A
O803        C810   1.276       .  A
H804        C817   1.081   1_556  S
C805        H830   1.081       .  S
C805        O819   1.239       .  S
C805        O820   1.272       .  A
O806        C829   1.273       .  A
O807       Mg821   2.140       .  S
O808       Mg838   2.298   1_556  S
C809       C4400   1.472       .  S
C809        O822   1.272       .  A
C809        O814   1.275       .  A
C810       C3670   1.463       .  S
C810        O837   1.270       .  A
Mg811       O818   2.127       .  S
Mg811       O819   2.140   1_565  S
Mg811       O812   2.308       .  S
Mg811       O813   2.299   1_554  S
Mg811       O840   2.275   1_564  S
O813        C817   1.272   1_566  A
O814       Mg821   2.313       .  S
O815        C834   1.272       .  A
O816        C836   1.276       .  A
O816       Mg832   2.315       .  S
O818       Mg832   2.141       .  S
O818        C829   1.240       .  S
O819       Mg838   2.117       .  S
O820       Mg832   2.297   1_545  S
Mg821       O837   2.242       .  S
O822       Mg838   2.260       .  S
H823        C828   1.081       .  S
O824       Mg832   2.123       .  S
O824        C827   1.240       .  S
H825        C827   1.081       .  S
H826        C829   1.081       .  S
O831       Mg838   2.300       .  S
C834       C3663   1.470       .  S
C834        O839   1.275       .  A
O835        C836   1.271       .  A
C836       C3650   1.469       .  S
O841       Mg843   2.114       .  S
O841       Mg849   2.134       .  S
O841        C876   1.239       .  S
C842        H881   1.081   1_554  S
C842        O855   1.240       .  S
C842        O879   1.273   1_554  A
Mg843       O872   2.137       .  S
Mg843       O887   2.296       .  S
Mg843       O883   2.246       .  S
Mg843       O854   2.297       .  S
O844       Mg886   2.135   1_554  S
O844       Mg869   2.125       .  S
O844        C865   1.240       .  S
O845        C876   1.272       .  A
O845       Mg869   2.299       .  S
C846       C3640   1.491       .  S
C846        O848   1.273       .  A
C846        O860   1.276       .  A
O847        C875   1.273       .  A
O847       Mg849   2.302       .  S
O848       Mg880   2.270       .  S
Mg849       O855   2.114       .  S
Mg849       O863   2.263       .  S
Mg849       O851   2.295       .  S
C850       C4183   1.488       .  S
C850        O888   1.272       .  A
C850        O856   1.275       .  A
O851        C858   1.275       .  A
H852        C865   1.081       .  S
C853        H878   1.081       .  S
C853        O867   1.239       .  S
C853        O868   1.272       .  A
O854        C877   1.272       .  A
O855       Mg869   2.137       .  S
O856       Mg886   2.299   1_554  S
C857       C4593   1.485       .  S
C857        O870   1.272       .  A
C857        O862   1.275       .  A
C858       C3620   1.487       .  S
C858        O885   1.273       .  A
Mg859       O866   2.117       .  S
Mg859       O867   2.133       .  S
Mg859       O860   2.302       .  S
Mg859       O861   2.306       .  S
Mg859       O888   2.270       .  S
O861        C865   1.274       .  A
O862       Mg869   2.295   1_556  S
O863        C882   1.271       .  A
O864        C884   1.276       .  A
O864       Mg880   2.312       .  S
O866       Mg880   2.140       .  S
O866        C877   1.239       .  S
O867       Mg886   2.119   1_554  S
O868       Mg880   2.302       .  S
Mg869       O885   2.276       .  S
O870       Mg886   2.261       .  S
H871        C876   1.081       .  S
O872       Mg880   2.123       .  S
O872        C875   1.239       .  S
H873        C875   1.081       .  S
H874        C877   1.081       .  S
O879       Mg886   2.302       .  S
C882       C3633   1.487       .  S
C882        O887   1.275       .  A
O883        C884   1.270       .  A
C884       C3610   1.467       .  S
C889        C890   1.403       .  A
C889        C894   1.394       .  A
C889       C3873   1.480       .  S
C890        C891   1.412       .  A
C890        H895   1.083       .  S
C891        C892   1.413       .  A
C891        C900   1.488       .  S
C892        C893   1.406       .  A
C892        H896   1.083       .  S
C893        C894   1.397       .  A
C893       C3600   1.484       .  S
C894        H897   1.084       .  S
C898        C899   1.408       .  A
C898        C903   1.411       .  A
C898        C911   1.497       .  S
C899        C900   1.406   1_565  A
C899        H904   1.083       .  S
C900        C901   1.406       .  A
C901        C902   1.407   1_545  A
C901        H905   1.083       .  S
C902        C903   1.410       .  A
C902        C920   1.496       .  S
C903        H906   1.082       .  S
C907        C908   1.398       .  A
C907        C912   1.409       .  A
C907       C3590   1.490       .  S
C908        C909   1.398       .  A
C908        H913   1.084       .  S
C909        C910   1.405       .  A
C909       C3630   1.484       .  S
C910        C911   1.411       .  A
C910        H914   1.083       .  S
C911        C912   1.414       .  A
C912        H915   1.082       .  S
C916        C917   1.399       .  A
C916        C921   1.409       .  A
C916       C3580   1.490       .  S
C917        C918   1.398   1_546  A
C917        H922   1.084       .  S
C918        C919   1.406       .  A
C918       C3680   1.487       .  S
C919        C920   1.411       .  A
C919        H923   1.082       .  S
C920        C921   1.414   1_564  A
C921        H924   1.083       .  S
O925       Mg927   2.118       .  S
O925       Mg933   2.132   1_545  S
O925        C960   1.239       .  S
C926        H965   1.081       .  S
C926        O939   1.239       .  S
C926        O963   1.272       .  A
Mg927       O956   2.137       .  S
Mg927       O971   2.311       .  S
Mg927       O967   2.255       .  S
Mg927       O938   2.301       .  S
O928       Mg970   2.137       .  S
O928       Mg953   2.117       .  S
O928        C949   1.240       .  S
O929        C960   1.273       .  A
O929       Mg953   2.302   1_545  S
C930       C3583   1.492       .  S
C930        O932   1.272       .  A
C930        O944   1.277       .  A
O931        C959   1.273   1_565  A
O931       Mg933   2.301       .  S
O932       Mg964   2.267       .  S
Mg933       O939   2.110       .  S
Mg933       O947   2.244   1_565  S
Mg933       O935   2.304       .  S
C934       C4453   1.484       .  S
C934        O972   1.272       .  A
C934        O940   1.275       .  A
O935        C942   1.275       .  A
H936        C949   1.081       .  S
C937        H962   1.081       .  S
C937        O951   1.240       .  S
C937        O952   1.273       .  A
O938        C961   1.273       .  A
O939       Mg953   2.131       .  S
O940       Mg970   2.297       .  S
C941       C4573   1.489       .  S
C941        O954   1.273       .  A
C941        O946   1.274       .  A
C942       C3763   1.484       .  S
C942        O969   1.272       .  A
Mg943       O950   2.123       .  S
Mg943       O951   2.134   1_545  S
Mg943       O944   2.308       .  S
Mg943       O945   2.304       .  S
Mg943       O972   2.268   1_545  S
O945        C949   1.273   1_545  A
O946       Mg953   2.293       .  S
O947        C966   1.270       .  A
O948        C968   1.276       .  A
O948       Mg964   2.316       .  S
O950       Mg964   2.136       .  S
O950        C961   1.239       .  S
O951       Mg970   2.127       .  S
O952       Mg964   2.306   1_565  S
Mg953       O969   2.267       .  S
O954       Mg970   2.275       .  S
H955        C960   1.081       .  S
O956       Mg964   2.124       .  S
O956        C959   1.240       .  S
H957        C959   1.081       .  S
H958        C961   1.081       .  S
O963       Mg970   2.298       .  S
C966       C3570   1.466       .  S
C966        O971   1.275       .  A
O967        C968   1.271       .  A
C968       C3560   1.468       .  S
C973        C974   1.409       .  A
C973        C978   1.397   1_565  A
C973       C4353   1.495       .  S
C974        C975   1.414   1_465  A
C974        H979   1.081       .  S
C975        C976   1.416       .  A
C975        C984   1.498   1_545  S
C976        C977   1.407   1_655  A
C976        H980   1.083       .  S
C977        C978   1.396       .  A
C977       C3550   1.486   1_455  S
C978        H981   1.084       .  S
C982        C983   1.408       .  A
C982        C987   1.410   1_545  A
C982        C995   1.497       .  S
C983        C984   1.407   1_545  A
C983        H988   1.083       .  S
C984        C985   1.410       .  A
C985        C986   1.411       .  A
C985        H989   1.082       .  S
C986        C987   1.410       .  A
C986       C1004   1.501       .  S
C987        H990   1.082       .  S
C991        C992   1.399       .  A
C991        C996   1.410       .  A
C991       C3543   1.494       .  S
C992        C993   1.398       .  A
C992        H997   1.083       .  S
C993        C994   1.407       .  A
C993       C3573   1.489       .  S
C994        C995   1.411       .  A
C994        H998   1.082       .  S
C995        C996   1.414       .  A
C996        H999   1.082       .  S
C1000      C1001   1.397       .  A
C1000      C1005   1.406       .  A
C1000      C3530   1.481       .  S
C1001      C1002   1.400       .  A
C1001      H1006   1.084       .  S
C1002      C1003   1.410       .  A
C1002      C3813   1.490       .  S
C1003      C1004   1.414       .  A
C1003      H1007   1.082       .  S
C1004      C1005   1.412       .  A
C1005      H1008   1.083       .  S
O1009     Mg1011   2.119       .  S
O1009     Mg1017   2.128       .  S
O1009      C1044   1.239       .  S
C1010      H1049   1.081       .  S
C1010      O1023   1.239       .  S
C1010      O1047   1.273       .  A
Mg1011     O1040   2.126       .  S
Mg1011     O1055   2.302       .  S
Mg1011     O1051   2.252       .  S
Mg1011     O1022   2.300       .  S
O1012     Mg1054   2.129       .  S
O1012     Mg1037   2.125       .  S
O1012      C1033   1.240       .  S
O1013      C1044   1.273       .  A
O1013     Mg1037   2.304       .  S
C1014      C3520   1.466       .  S
C1014      O1016   1.270       .  A
C1014      O1028   1.276       .  A
O1015      C1043   1.273       .  A
O1015     Mg1017   2.303       .  S
O1016     Mg1048   2.242       .  S
Mg1017     O1023   2.124       .  S
Mg1017     O1031   2.266       .  S
Mg1017     O1019   2.293       .  S
C1018      C4053   1.492       .  S
C1018      O1056   1.273       .  A
C1018      O1024   1.276       .  A
O1019      C1026   1.274       .  A
H1020      C1033   1.081   1_455  S
C1021      H1046   1.081       .  S
C1021      O1035   1.240       .  S
C1021      O1036   1.273       .  A
O1022      C1045   1.273       .  A
O1023     Mg1037   2.135       .  S
O1024     Mg1054   2.304   1_455  S
C1025      C3533   1.469       .  S
C1025      O1038   1.271       .  A
C1025      O1030   1.275       .  A
C1026      C3843   1.488       .  S
C1026      O1053   1.272       .  A
Mg1027     O1034   2.123       .  S
Mg1027     O1035   2.136       .  S
Mg1027     O1028   2.313       .  S
Mg1027     O1029   2.306   1_655  S
Mg1027     O1056   2.268   1_655  S
O1029      C1033   1.274   1_455  A
O1030     Mg1037   2.316       .  S
O1031      C1050   1.271       .  A
O1032      C1052   1.276       .  A
O1032     Mg1048   2.317       .  S
O1034     Mg1048   2.137       .  S
O1034      C1045   1.240       .  S
O1035     Mg1054   2.123       .  S
O1036     Mg1048   2.302       .  S
Mg1037     O1053   2.264       .  S
O1038     Mg1054   2.265       .  S
H1039      C1044   1.081       .  S
O1040     Mg1048   2.111       .  S
O1040      C1043   1.240       .  S
H1041      C1043   1.081       .  S
H1042      C1045   1.081       .  S
O1047     Mg1054   2.306       .  S
C1050      C4553   1.471       .  S
C1050      O1055   1.274       .  A
O1051      C1052   1.270       .  A
C1052      C3510   1.469       .  S
C1057      C1058   1.396       .  A
C1057      C1062   1.403       .  A
C1057      C3500   1.481       .  S
C1058      C1059   1.398       .  A
C1058      H1063   1.084       .  S
C1059      C1060   1.408       .  A
C1059      C3490   1.487       .  S
C1060      C1061   1.414       .  A
C1060      H1064   1.083       .  S
C1061      C1062   1.412       .  A
C1061      C1068   1.494       .  S
C1062      H1065   1.083       .  S
C1066      C1067   1.409       .  A
C1066      C1071   1.410       .  A
C1066      C1079   1.496       .  S
C1067      C1068   1.409       .  A
C1067      H1072   1.083       .  S
C1068      C1069   1.408       .  A
C1069      C1070   1.406       .  A
C1069      H1073   1.083       .  S
C1070      C1071   1.409       .  A
C1070      C1088   1.495       .  S
C1071      H1074   1.082       .  S
C1075      C1076   1.397       .  A
C1075      C1080   1.407   1_556  A
C1075      C3483   1.485   1_556  S
C1076      C1077   1.396   1_455  A
C1076      H1081   1.084       .  S
C1077      C1078   1.408       .  A
C1077      C3523   1.492       .  S
C1078      C1079   1.414   1_556  A
C1078      H1082   1.082       .  S
C1079      C1080   1.415   1_655  A
C1080      H1083   1.083       .  S
C1084      C1085   1.397       .  A
C1084      C1089   1.408       .  A
C1084      C3643   1.490       .  S
C1085      C1086   1.395       .  A
C1085      H1090   1.084       .  S
C1086      C1087   1.405       .  A
C1086      C3470   1.483       .  S
C1087      C1088   1.412       .  A
C1087      H1091   1.083       .  S
C1088      C1089   1.415       .  A
C1089      H1092   1.083       .  S
O1093     Mg1095   2.136       .  S
O1093     Mg1101   2.116       .  S
O1093      C1128   1.240       .  S
C1094      H1133   1.081       .  S
C1094      O1107   1.239       .  S
C1094      O1131   1.273   1_565  A
Mg1095     O1124   2.113   1_565  S
Mg1095     O1139   2.332   1_655  S
Mg1095     O1135   2.250   1_654  S
Mg1095     O1106   2.305   1_554  S
O1096     Mg1138   2.115   1_565  S
O1096     Mg1121   2.127       .  S
O1096      C1117   1.240       .  S
O1097      C1128   1.275       .  A
O1097     Mg1121   2.314       .  S
C1098      C3450   1.470       .  S
C1098      O1100   1.271   1_554  A
C1098      O1112   1.274       .  A
O1099      C1127   1.274       .  A
O1099     Mg1101   2.309   1_445  S
O1100     Mg1132   2.248   1_556  S
Mg1101     O1107   2.116       .  S
Mg1101     O1115   2.227   1_655  S
Mg1101     O1103   2.304       .  S
C1102      C3603   1.488       .  S
C1102      O1140   1.269       .  A
C1102      O1108   1.275       .  A
O1103      C1110   1.272       .  A
H1104      C1117   1.081       .  S
C1105      H1130   1.081       .  S
C1105      O1119   1.240       .  S
C1105      O1120   1.274       .  A
O1106      C1129   1.274   1_565  A
O1107     Mg1121   2.122       .  S
O1108     Mg1138   2.324       .  S
C1109      C3460   1.493       .  S
C1109      O1122   1.271   1_565  A
C1109      O1114   1.277       .  A
C1110      C3493   1.467       .  S
C1110      O1137   1.271       .  A
Mg1111     O1118   2.114       .  S
Mg1111     O1119   2.123       .  S
Mg1111     O1112   2.316       .  S
Mg1111     O1113   2.309   1_545  S
Mg1111     O1140   2.229       .  S
O1113      C1117   1.274       .  A
O1114     Mg1121   2.337       .  S
O1115      C1134   1.267       .  A
O1116      C1136   1.276       .  A
O1116     Mg1132   2.326   1_556  S
O1118     Mg1132   2.125       .  S
O1118      C1129   1.240   1_554  S
O1119     Mg1138   2.130       .  S
O1120     Mg1132   2.306       .  S
Mg1121     O1137   2.262       .  S
O1122     Mg1138   2.241       .  S
H1123      C1128   1.081       .  S
O1124     Mg1132   2.120       .  S
O1124      C1127   1.239   1_655  S
H1125      C1127   1.081       .  S
H1126      C1129   1.081       .  S
O1131     Mg1138   2.308       .  S
C1134      C3440   1.488       .  S
C1134      O1139   1.276       .  A
O1135      C1136   1.272   1_465  A
C1136      C3553   1.493       .  S
O1141     Mg1143   2.128       .  S
O1141     Mg1149   2.111       .  S
O1141      C1176   1.239   1_655  S
C1142      H1181   1.081       .  S
C1142      O1155   1.240   1_556  S
C1142      O1179   1.274       .  A
Mg1143     O1172   2.123       .  S
Mg1143     O1187   2.333       .  S
Mg1143     O1183   2.248       .  S
Mg1143     O1154   2.305       .  S
O1144     Mg1186   2.122       .  S
O1144     Mg1169   2.118       .  S
O1144      C1165   1.240       .  S
O1145      C1176   1.274       .  A
O1145     Mg1169   2.313   1_455  S
C1146      C4213   1.474       .  S
C1146      O1148   1.272       .  A
C1146      O1160   1.275       .  A
O1147      C1175   1.274       .  A
O1147     Mg1149   2.310       .  S
O1148     Mg1180   2.245       .  S
Mg1149     O1155   2.127       .  S
Mg1149     O1163   2.238   1_655  S
Mg1149     O1151   2.328   1_655  S
C1150      C3473   1.464       .  S
C1150      O1188   1.271       .  A
C1150      O1156   1.273       .  A
O1151      C1158   1.275       .  A
H1152      C1165   1.081       .  S
C1153      H1178   1.081       .  S
C1153      O1167   1.239       .  S
C1153      O1168   1.272       .  A
O1154      C1177   1.274       .  A
O1155     Mg1169   2.117       .  S
O1156     Mg1186   2.301       .  S
C1157      C3410   1.480       .  S
C1157      O1170   1.270       .  A
C1157      O1162   1.274       .  A
C1158      C3423   1.488       .  S
C1158      O1185   1.268   1_554  A
Mg1159     O1166   2.122       .  S
Mg1159     O1167   2.131       .  S
Mg1159     O1160   2.317       .  S
Mg1159     O1161   2.303       .  S
Mg1159     O1188   2.254       .  S
O1161      C1165   1.273       .  A
O1162     Mg1169   2.317   1_556  S
O1163      C1182   1.270   1_455  A
O1164      C1184   1.273       .  A
O1164     Mg1180   2.306       .  S
O1166     Mg1180   2.128       .  S
O1166      C1177   1.240       .  S
O1167     Mg1186   2.115       .  S
O1168     Mg1180   2.298       .  S
Mg1169     O1185   2.230   1_654  S
O1170     Mg1186   2.241   1_556  S
H1171      C1176   1.081       .  S
O1172     Mg1180   2.123       .  S
O1172      C1175   1.239       .  S
H1173      C1175   1.081       .  S
H1174      C1177   1.081       .  S
O1179     Mg1186   2.310   1_556  S
C1182      C3430   1.491       .  S
C1182      O1187   1.276       .  A
O1183      C1184   1.270       .  A
C1184      C4333   1.463       .  S
C1189      C1190   1.398       .  A
C1189      C1194   1.411       .  A
C1189      C3513   1.491       .  S
C1190      C1191   1.395       .  A
C1190      H1195   1.084       .  S
C1191      C1192   1.402       .  A
C1191      C3413   1.472       .  S
C1192      C1193   1.412       .  A
C1192      H1196   1.083       .  S
C1193      C1194   1.414       .  A
C1193      C1200   1.496       .  S
C1194      H1197   1.082       .  S
C1198      C1199   1.410       .  A
C1198      C1203   1.409       .  A
C1198      C1209   1.497       .  S
C1199      C1200   1.407       .  A
C1199      H1204   1.083       .  S
C1200      C1201   1.407       .  A
C1201      C1202   1.408       .  A
C1201      H1205   1.083       .  S
C1202      C1203   1.408       .  A
C1202      C1218   1.493       .  S
C1203      H1206   1.083       .  S
C1207      C1208   1.402       .  A
C1207      C1212   1.395       .  A
C1207      C3400   1.473       .  S
C1208      C1209   1.410   1_455  A
C1208      H1213   1.083       .  S
C1209      C1210   1.413       .  A
C1210      C1211   1.411   1_655  A
C1210      H1214   1.082       .  S
C1211      C1212   1.401       .  A
C1211      C3393   1.490   1_455  S
C1212      H1215   1.084       .  S
C1216      C1217   1.401       .  A
C1216      C1221   1.391       .  A
C1216      C4273   1.474       .  S
C1217      C1218   1.412       .  A
C1217      H1222   1.083       .  S
C1218      C1219   1.415       .  A
C1219      C1220   1.409       .  A
C1219      H1223   1.083       .  S
C1220      C1221   1.399       .  A
C1220      C3380   1.487       .  S
C1221      H1224   1.085       .  S
O1225     Mg1227   2.129       .  S
O1225     Mg1233   2.114       .  S
O1225      C1260   1.239       .  S
C1226      H1265   1.081       .  S
C1226      O1239   1.239       .  S
C1226      O1263   1.274       .  A
Mg1227     O1256   2.125       .  S
Mg1227     O1271   2.322   1_655  S
Mg1227     O1267   2.246   1_655  S
Mg1227     O1238   2.299       .  S
O1228     Mg1270   2.116       .  S
O1228     Mg1253   2.124       .  S
O1228      C1249   1.239       .  S
O1229      C1260   1.274       .  A
O1229     Mg1253   2.313       .  S
C1230      C3833   1.469       .  S
C1230      O1232   1.272       .  A
C1230      O1244   1.274       .  A
O1231      C1259   1.274       .  A
O1231     Mg1233   2.309   1_455  S
O1232     Mg1264   2.253       .  S
Mg1233     O1239   2.130       .  S
Mg1233     O1247   2.244   1_655  S
Mg1233     O1235   2.332       .  S
C1234      C3360   1.489       .  S
C1234      O1272   1.269       .  A
C1234      O1240   1.274       .  A
O1235      C1242   1.276       .  A
H1236      C1249   1.081       .  S
C1237      H1262   1.081       .  S
C1237      O1251   1.239       .  S
C1237      O1252   1.273       .  A
O1238      C1261   1.273       .  A
O1239     Mg1253   2.115       .  S
O1240     Mg1270   2.322       .  S
C1241      C3383   1.491       .  S
C1241      O1254   1.269       .  A
C1241      O1246   1.275       .  A
C1242      C3350   1.489       .  S
C1242      O1269   1.269       .  A
Mg1243     O1250   2.113       .  S
Mg1243     O1251   2.123       .  S
Mg1243     O1244   2.308       .  S
Mg1243     O1245   2.308       .  S
Mg1243     O1272   2.232       .  S
O1245      C1249   1.273       .  A
O1246     Mg1253   2.329       .  S
O1247      C1266   1.271       .  A
O1248      C1268   1.275       .  A
O1248     Mg1264   2.313       .  S
O1250     Mg1264   2.133       .  S
O1250      C1261   1.240       .  S
O1251     Mg1270   2.122       .  S
O1252     Mg1264   2.301       .  S
Mg1253     O1269   2.238       .  S
O1254     Mg1270   2.234       .  S
H1255      C1260   1.081       .  S
O1256     Mg1264   2.121       .  S
O1256      C1259   1.240   1_655  S
H1257      C1259   1.081       .  S
H1258      C1261   1.081       .  S
O1263     Mg1270   2.313       .  S
C1266      C3370   1.486       .  S
C1266      O1271   1.275       .  A
O1267      C1268   1.272   1_455  A
C1268      C4300   1.472       .  S
C1273      C1274   1.399       .  A
C1273      C1278   1.409       .  A
C1273      C3653   1.491       .  S
C1274      C1275   1.398       .  A
C1274      H1279   1.084       .  S
C1275      C1276   1.405       .  A
C1275      C3623   1.483       .  S
C1276      C1277   1.413       .  A
C1276      H1280   1.083       .  S
C1277      C1278   1.413       .  A
C1277      C1284   1.498       .  S
C1278      H1281   1.082       .  S
C1282      C1283   1.409       .  A
C1282      C1287   1.407       .  A
C1282      C1293   1.497       .  S
C1283      C1284   1.411       .  A
C1283      H1288   1.082       .  S
C1284      C1285   1.409       .  A
C1285      C1286   1.408       .  A
C1285      H1289   1.082       .  S
C1286      C1287   1.407       .  A
C1286      C1302   1.494       .  S
C1287      H1290   1.082       .  S
C1291      C1292   1.405       .  A
C1291      C1296   1.396       .  A
C1291      C3330   1.480       .  S
C1292      C1293   1.413       .  A
C1292      H1297   1.083       .  S
C1293      C1294   1.412       .  A
C1294      C1295   1.408       .  A
C1294      H1298   1.083       .  S
C1295      C1296   1.397       .  A
C1295      C3340   1.485       .  S
C1296      H1299   1.084       .  S
C1300      C1301   1.409       .  A
C1300      C1305   1.398       .  A
C1300      C4543   1.484       .  S
C1301      C1302   1.414   1_556  A
C1301      H1306   1.083       .  S
C1302      C1303   1.411       .  A
C1303      C1304   1.401       .  A
C1303      H1307   1.083       .  S
C1304      C1305   1.393   1_554  A
C1304      C3320   1.470       .  S
C1305      H1308   1.085       .  S
O1309     Mg1311   2.127       .  S
O1309     Mg1317   2.119       .  S
O1309      C1344   1.240       .  S
C1310      H1349   1.081       .  S
C1310      O1323   1.239       .  S
C1310      O1347   1.272       .  A
Mg1311     O1340   2.110       .  S
Mg1311     O1355   2.325       .  S
Mg1311     O1351   2.234       .  S
Mg1311     O1322   2.313       .  S
O1312     Mg1354   2.127       .  S
O1312     Mg1337   2.113       .  S
O1312      C1333   1.239   1_554  S
O1313      C1344   1.274       .  A
O1313     Mg1337   2.308       .  S
C1314      C4203   1.465       .  S
C1314      O1316   1.272       .  A
C1314      O1328   1.273       .  A
O1315      C1343   1.274       .  A
O1315     Mg1317   2.313       .  S
O1316     Mg1348   2.257       .  S
Mg1317     O1323   2.111       .  S
Mg1317     O1331   2.232       .  S
Mg1317     O1319   2.303       .  S
C1318      C3310   1.465       .  S
C1318      O1356   1.271       .  A
C1318      O1324   1.273       .  A
O1319      C1326   1.273       .  A
H1320      C1333   1.081       .  S
C1321      H1346   1.081       .  S
C1321      O1335   1.240       .  S
C1321      O1336   1.274       .  A
O1322      C1345   1.274       .  A
O1323     Mg1337   2.130       .  S
O1324     Mg1354   2.300   1_556  S
C1325      C3323   1.475       .  S
C1325      O1338   1.271   1_554  A
C1325      O1330   1.276       .  A
C1326      C3290   1.465       .  S
C1326      O1353   1.271       .  A
Mg1327     O1334   2.123       .  S
Mg1327     O1335   2.132       .  S
Mg1327     O1328   2.306       .  S
Mg1327     O1329   2.295   1_554  S
Mg1327     O1356   2.251   1_554  S
O1329      C1333   1.272       .  A
O1330     Mg1337   2.322       .  S
O1331      C1350   1.269       .  A
O1332      C1352   1.277       .  A
O1332     Mg1348   2.343       .  S
O1334     Mg1348   2.121       .  S
O1334      C1345   1.239       .  S
O1335     Mg1354   2.124       .  S
O1336     Mg1348   2.308       .  S
Mg1337     O1353   2.245       .  S
O1338     Mg1354   2.240   1_556  S
H1339      C1344   1.081       .  S
O1340     Mg1348   2.132       .  S
O1340      C1343   1.240       .  S
H1341      C1343   1.081       .  S
H1342      C1345   1.081       .  S
O1347     Mg1354   2.297       .  S
C1350      C3300   1.490       .  S
C1350      O1355   1.274       .  A
O1351      C1352   1.269       .  A
C1352      C4433   1.489       .  S
C1357      C1358   1.396       .  A
C1357      C1362   1.404       .  A
C1357      C3313   1.477       .  S
C1358      C1359   1.399       .  A
C1358      H1363   1.084       .  S
C1359      C1360   1.409       .  A
C1359      C4243   1.490       .  S
C1360      C1361   1.413       .  A
C1360      H1364   1.082       .  S
C1361      C1362   1.410       .  A
C1361      C1379   1.497       .  S
C1362      H1365   1.083       .  S
C1366      C1367   1.396       .  A
C1366      C1371   1.407       .  A
C1366      C3280   1.488       .  S
C1367      C1368   1.396       .  A
C1367      H1372   1.084       .  S
C1368      C1369   1.407       .  A
C1368      C4503   1.487       .  S
C1369      C1370   1.415       .  A
C1369      H1373   1.082       .  S
C1370      C1371   1.414       .  A
C1370      C1375   1.497       .  S
C1371      H1374   1.083       .  S
C1375      C1376   1.409       .  A
C1375      C1380   1.409       .  A
C1376      C1377   1.408       .  A
C1376      H1381   1.083       .  S
C1377      C1378   1.407       .  A
C1377      C1388   1.493       .  S
C1378      C1379   1.408       .  A
C1378      H1382   1.082       .  S
C1379      C1380   1.410       .  A
C1380      H1383   1.082       .  S
C1384      C1385   1.393       .  A
C1384      C1389   1.402       .  A
C1384      C3260   1.472       .  S
C1385      C1386   1.399       .  A
C1385      H1390   1.085       .  S
C1386      C1387   1.409       .  A
C1386      C3270   1.487       .  S
C1387      C1388   1.413       .  A
C1387      H1391   1.083       .  S
C1388      C1389   1.412       .  A
C1389      H1392   1.083       .  S
C1393      C1394   1.395       .  A
C1393      C1398   1.404       .  A
C1393      C3250   1.480       .  S
C1394      C1395   1.399       .  A
C1394      H1399   1.084       .  S
C1395      C1396   1.407       .  A
C1395      C4083   1.485       .  S
C1396      C1397   1.411       .  A
C1396      H1400   1.083       .  S
C1397      C1398   1.412       .  A
C1397      C1422   1.493       .  S
C1398      H1401   1.083       .  S
C1402      C1403   1.403       .  A
C1402      C1407   1.393       .  A
C1402      C3373   1.476       .  S
C1403      C1404   1.415       .  A
C1403      H1408   1.083       .  S
C1404      C1405   1.414       .  A
C1404      C1424   1.493       .  S
C1405      C1406   1.406       .  A
C1405      H1409   1.083       .  S
C1406      C1407   1.395       .  A
C1406      C3240   1.484       .  S
C1407      H1410   1.085       .  S
C1411      C1412   1.411       .  A
C1411      C1416   1.400       .  A
C1411      C3220   1.491       .  S
C1412      C1413   1.413       .  A
C1412      H1417   1.082       .  S
C1413      C1414   1.410       .  A
C1413      C1420   1.498       .  S
C1414      C1415   1.404       .  A
C1414      H1418   1.083       .  S
C1415      C1416   1.396       .  A
C1415      C3230   1.479       .  S
C1416      H1419   1.084       .  S
C1420      C1421   1.409       .  A
C1420      C1425   1.410       .  A
C1421      C1422   1.409       .  A
C1421      H1426   1.082       .  S
C1422      C1423   1.407       .  A
C1423      C1424   1.405       .  A
C1423      H1427   1.083       .  S
C1424      C1425   1.408       .  A
C1425      H1428   1.082       .  S
O1429     Mg1431   2.120       .  S
O1429     Mg1437   2.136       .  S
O1429      C1464   1.239       .  S
C1430      H1469   1.081       .  S
C1430      O1443   1.240       .  S
C1430      O1467   1.274       .  A
Mg1431     O1460   2.132       .  S
Mg1431     O1475   2.305       .  S
Mg1431     O1471   2.271       .  S
Mg1431     O1442   2.305       .  S
O1432     Mg1474   2.131       .  S
O1432     Mg1457   2.120       .  S
O1432      C1453   1.239       .  S
O1433      C1464   1.273       .  A
O1433     Mg1457   2.301       .  S
C1434      C3200   1.486       .  S
C1434      O1436   1.271       .  A
C1434      O1448   1.274       .  A
O1435      C1463   1.272       .  A
O1435     Mg1437   2.301       .  S
O1436     Mg1468   2.261       .  S
Mg1437     O1443   2.122       .  S
Mg1437     O1451   2.262       .  S
Mg1437     O1439   2.311       .  S
C1438      C3403   1.467       .  S
C1438      O1476   1.270       .  A
C1438      O1444   1.274       .  A
O1439      C1446   1.275       .  A
H1440      C1453   1.081       .  S
C1441      H1466   1.081       .  S
C1441      O1455   1.240       .  S
C1441      O1456   1.273       .  A
O1442      C1465   1.274       .  A
O1443     Mg1457   2.130       .  S
O1444     Mg1474   2.307       .  S
C1445      C3210   1.482       .  S
C1445      O1458   1.271       .  A
C1445      O1450   1.273       .  A
C1446      C3233   1.464       .  S
C1446      O1473   1.269       .  A
Mg1447     O1454   2.122       .  S
Mg1447     O1455   2.127       .  S
Mg1447     O1448   2.292       .  S
Mg1447     O1449   2.306       .  S
Mg1447     O1476   2.266       .  S
O1449      C1453   1.273       .  A
O1450     Mg1457   2.288       .  S
O1451      C1470   1.272       .  A
O1452      C1472   1.275       .  A
O1452     Mg1468   2.297       .  S
O1454     Mg1468   2.135       .  S
O1454      C1465   1.240       .  S
O1455     Mg1474   2.117       .  S
O1456     Mg1468   2.304       .  S
Mg1457     O1473   2.252       .  S
O1458     Mg1474   2.261       .  S
H1459      C1464   1.081       .  S
O1460     Mg1468   2.117       .  S
O1460      C1463   1.239       .  S
H1461      C1463   1.081       .  S
H1462      C1465   1.081       .  S
O1467     Mg1474   2.307       .  S
C1470      C3283   1.489       .  S
C1470      O1475   1.277       .  A
O1471      C1472   1.273       .  A
C1472      C4043   1.486       .  S
C1477      C1478   1.399       .  A
C1477      C1482   1.408       .  A
C1477      C3190   1.492       .  S
C1478      C1479   1.401       .  A
C1478      H1483   1.083       .  S
C1479      C1480   1.409       .  A
C1479      C4093   1.493       .  S
C1480      C1481   1.412       .  A
C1480      H1484   1.082       .  S
C1481      C1482   1.412       .  A
C1481      C1490   1.496       .  S
C1482      H1485   1.082       .  S
C1486      C1487   1.409       .  A
C1486      C1491   1.410       .  A
C1486      C1506   1.495       .  S
C1487      C1488   1.407       .  A
C1487      H1492   1.083       .  S
C1488      C1489   1.408       .  A
C1488      C1497   1.492       .  S
C1489      C1490   1.407       .  A
C1489      H1493   1.083       .  S
C1490      C1491   1.409       .  A
C1491      H1494   1.083       .  S
C1495      C1496   1.410       .  A
C1495      C1500   1.398       .  A
C1495      C3183   1.488       .  S
C1496      C1497   1.417       .  A
C1496      H1501   1.083       .  S
C1497      C1498   1.412       .  A
C1498      C1499   1.399       .  A
C1498      H1502   1.083       .  S
C1499      C1500   1.391       .  A
C1499      C3173   1.470       .  S
C1500      H1503   1.085       .  S
C1504      C1505   1.403       .  A
C1504      C1509   1.396       .  A
C1504      C3150   1.477       .  S
C1505      C1506   1.411       .  A
C1505      H1510   1.083       .  S
C1506      C1507   1.414       .  A
C1507      C1508   1.411       .  A
C1507      H1511   1.083       .  S
C1508      C1509   1.401       .  A
C1508      C3160   1.492       .  S
C1509      H1512   1.084       .  S
O1513     Mg1515   2.128       .  S
O1513     Mg1521   2.137       .  S
O1513      C1548   1.240       .  S
C1514      H1553   1.081       .  S
C1514      O1527   1.240       .  S
C1514      O1551   1.274       .  A
Mg1515     O1544   2.125       .  S
Mg1515     O1559   2.293       .  S
Mg1515     O1555   2.267       .  S
Mg1515     O1526   2.306       .  S
O1516     Mg1558   2.128       .  S
O1516     Mg1541   2.109       .  S
O1516      C1537   1.239       .  S
O1517      C1548   1.273       .  A
O1517     Mg1541   2.305       .  S
C1518      C4310   1.489       .  S
C1518      O1520   1.272       .  A
C1518      O1532   1.275       .  A
O1519      C1547   1.274       .  A
O1519     Mg1521   2.309       .  S
O1520     Mg1552   2.265       .  S
Mg1521     O1527   2.127       .  S
Mg1521     O1535   2.274       .  S
Mg1521     O1523   2.317       .  S
C1522      C3253   1.465       .  S
C1522      O1560   1.270       .  A
C1522      O1528   1.275       .  A
O1523      C1530   1.276       .  A
H1524      C1537   1.081       .  S
C1525      H1550   1.081       .  S
C1525      O1539   1.240       .  S
C1525      O1540   1.273       .  A
O1526      C1549   1.274       .  A
O1527     Mg1541   2.134       .  S
O1528     Mg1558   2.308       .  S
C1529      C3163   1.493       .  S
C1529      O1542   1.272       .  A
C1529      O1534   1.276       .  A
C1530      C3140   1.466       .  S
C1530      O1557   1.270       .  A
Mg1531     O1538   2.117       .  S
Mg1531     O1539   2.135       .  S
Mg1531     O1532   2.297       .  S
Mg1531     O1533   2.297       .  S
Mg1531     O1560   2.253       .  S
O1533      C1537   1.272       .  A
O1534     Mg1541   2.313       .  S
O1535      C1554   1.272       .  A
O1536      C1556   1.275       .  A
O1536     Mg1552   2.310       .  S
O1538     Mg1552   2.130       .  S
O1538      C1549   1.240       .  S
O1539     Mg1558   2.121       .  S
O1540     Mg1552   2.303       .  S
Mg1541     O1557   2.243       .  S
O1542     Mg1558   2.265       .  S
H1543      C1548   1.081       .  S
O1544     Mg1552   2.124       .  S
O1544      C1547   1.239       .  S
H1545      C1547   1.081       .  S
H1546      C1549   1.081       .  S
O1551     Mg1558   2.305       .  S
C1554      C3130   1.478       .  S
C1554      O1559   1.274       .  A
O1555      C1556   1.271       .  A
C1556      C4143   1.471       .  S
O1561     Mg1563   2.116       .  S
O1561     Mg1569   2.140       .  S
O1561      C1596   1.239       .  S
C1562      H1601   1.081       .  S
C1562      O1575   1.240       .  S
C1562      O1599   1.273       .  A
Mg1563     O1592   2.134       .  S
Mg1563     O1607   2.288       .  S
Mg1563     O1603   2.261       .  S
Mg1563     O1574   2.300       .  S
O1564     Mg1606   2.140       .  S
O1564     Mg1589   2.125       .  S
O1564      C1585   1.239       .  S
O1565      C1596   1.272       .  A
O1565     Mg1589   2.299       .  S
C1566      C3193   1.469       .  S
C1566      O1568   1.271       .  A
C1566      O1580   1.276       .  A
O1567      C1595   1.272       .  A
O1567     Mg1569   2.298       .  S
O1568     Mg1600   2.253   1_455  S
Mg1569     O1575   2.122       .  S
Mg1569     O1583   2.274       .  S
Mg1569     O1571   2.294       .  S
C1570      C3823   1.467       .  S
C1570      O1608   1.271       .  A
C1570      O1576   1.276       .  A
O1571      C1578   1.275       .  A
H1572      C1585   1.081       .  S
C1573      H1598   1.081   1_655  S
C1573      O1587   1.239       .  S
C1573      O1588   1.273   1_655  A
O1574      C1597   1.273       .  A
O1575     Mg1589   2.139       .  S
O1576     Mg1606   2.311       .  S
C1577      C4283   1.489       .  S
C1577      O1590   1.272       .  A
C1577      O1582   1.275       .  A
C1578      C3113   1.490       .  S
C1578      O1605   1.273       .  A
Mg1579     O1586   2.118       .  S
Mg1579     O1587   2.138       .  S
Mg1579     O1580   2.313   1_655  S
Mg1579     O1581   2.301       .  S
Mg1579     O1608   2.255       .  S
O1581      C1585   1.272       .  A
O1582     Mg1589   2.295       .  S
O1583      C1602   1.273       .  A
O1584      C1604   1.276       .  A
O1584     Mg1600   2.303       .  S
O1586     Mg1600   2.134       .  S
O1586      C1597   1.239       .  S
O1587     Mg1606   2.122       .  S
O1588     Mg1600   2.299   1_455  S
Mg1589     O1605   2.272       .  S
O1590     Mg1606   2.266       .  S
H1591      C1596   1.081       .  S
O1592     Mg1600   2.112       .  S
O1592      C1595   1.239       .  S
H1593      C1595   1.081       .  S
H1594      C1597   1.081       .  S
O1599     Mg1606   2.304       .  S
C1602      C3503   1.485       .  S
C1602      O1607   1.274       .  A
O1603      C1604   1.271       .  A
C1604      C3120   1.489       .  S
O1609     Mg1611   2.121       .  S
O1609     Mg1617   2.132       .  S
O1609      C1644   1.240       .  S
C1610      H1649   1.081       .  S
C1610      O1623   1.239       .  S
C1610      O1647   1.272       .  A
Mg1611     O1640   2.140       .  S
Mg1611     O1655   2.299       .  S
Mg1611     O1651   2.266       .  S
Mg1611     O1622   2.301       .  S
O1612     Mg1654   2.138       .  S
O1612     Mg1637   2.128       .  S
O1612      C1633   1.240       .  S
O1613      C1644   1.273       .  A
O1613     Mg1637   2.304       .  S
C1614      C3943   1.471       .  S
C1614      O1616   1.271       .  A
C1614      O1628   1.275       .  A
O1615      C1643   1.273       .  A
O1615     Mg1617   2.305       .  S
O1616     Mg1648   2.268       .  S
Mg1617     O1623   2.119       .  S
Mg1617     O1631   2.263       .  S
Mg1617     O1619   2.299       .  S
C1618      C4223   1.468       .  S
C1618      O1656   1.270       .  A
C1618      O1624   1.276       .  A
O1619      C1626   1.275       .  A
H1620      C1633   1.081       .  S
C1621      H1646   1.081       .  S
C1621      O1635   1.239       .  S
C1621      O1636   1.273       .  A
O1622      C1645   1.272       .  A
O1623     Mg1637   2.136       .  S
O1624     Mg1654   2.316       .  S
C1625      C4293   1.465       .  S
C1625      O1638   1.271       .  A
C1625      O1630   1.276       .  A
C1626      C3093   1.486       .  S
C1626      O1653   1.273       .  A
Mg1627     O1634   2.116       .  S
Mg1627     O1635   2.127       .  S
Mg1627     O1628   2.311       .  S
Mg1627     O1629   2.303       .  S
Mg1627     O1656   2.247       .  S
O1629      C1633   1.273       .  A
O1630     Mg1637   2.312       .  S
O1631      C1650   1.272       .  A
O1632      C1652   1.274       .  A
O1632     Mg1648   2.287       .  S
O1634     Mg1648   2.127       .  S
O1634      C1645   1.239       .  S
O1635     Mg1654   2.118       .  S
O1636     Mg1648   2.304       .  S
Mg1637     O1653   2.276       .  S
O1638     Mg1654   2.248       .  S
H1639      C1644   1.081       .  S
O1640     Mg1648   2.122       .  S
O1640      C1643   1.240       .  S
H1641      C1643   1.081       .  S
H1642      C1645   1.081       .  S
O1647     Mg1654   2.301       .  S
C1650      C3100   1.487       .  S
C1650      O1655   1.275       .  A
O1651      C1652   1.272       .  A
C1652      C3083   1.487       .  S
C1657      C1658   1.400       .  A
C1657      C1662   1.408       .  A
C1657      C3110   1.489       .  S
C1658      C1659   1.398       .  A
C1658      H1663   1.084       .  S
C1659      C1660   1.407       .  A
C1659      C3613   1.489       .  S
C1660      C1661   1.411       .  A
C1660      H1664   1.082       .  S
C1661      C1662   1.413       .  A
C1661      C1666   1.496       .  S
C1662      H1665   1.083       .  S
C1666      C1667   1.408       .  A
C1666      C1671   1.410       .  A
C1667      C1668   1.407       .  A
C1667      H1672   1.083       .  S
C1668      C1669   1.409       .  A
C1668      C1688   1.494       .  S
C1669      C1670   1.409       .  A
C1669      H1673   1.083       .  S
C1670      C1671   1.410       .  A
C1670      C1677   1.499       .  S
C1671      H1674   1.082       .  S
C1675      C1676   1.408       .  A
C1675      C1680   1.398       .  A
C1675      C3060   1.491       .  S
C1676      C1677   1.412       .  A
C1676      H1681   1.082       .  S
C1677      C1678   1.414       .  A
C1678      C1679   1.408       .  A
C1678      H1682   1.083       .  S
C1679      C1680   1.399       .  A
C1679      C3070   1.488       .  S
C1680      H1683   1.084       .  S
C1684      C1685   1.394       .  A
C1684      C1689   1.403       .  A
C1684      C4023   1.474       .  S
C1685      C1686   1.399       .  A
C1685      H1690   1.085       .  S
C1686      C1687   1.407       .  A
C1686      C3090   1.482       .  S
C1687      C1688   1.414       .  A
C1687      H1691   1.083       .  S
C1688      C1689   1.411       .  A
C1689      H1692   1.083       .  S
O1693     Mg1695   2.118       .  S
O1693     Mg1701   2.132       .  S
O1693      C1728   1.239       .  S
C1694      H1733   1.081       .  S
C1694      O1707   1.240       .  S
C1694      O1731   1.273       .  A
Mg1695     O1724   2.120       .  S
Mg1695     O1739   2.303       .  S
Mg1695     O1735   2.236       .  S
Mg1695     O1706   2.306       .  S
O1696     Mg1738   2.125       .  S
O1696     Mg1721   2.117       .  S
O1696      C1717   1.240       .  S
O1697      C1728   1.273       .  A
O1697     Mg1721   2.301       .  S
C1698      C4490   1.466       .  S
C1698      O1700   1.271       .  A
C1698      O1712   1.273       .  A
O1699      C1727   1.274       .  A
O1699     Mg1701   2.306       .  S
O1700     Mg1732   2.260       .  S
Mg1701     O1707   2.120       .  S
Mg1701     O1715   2.250       .  S
Mg1701     O1703   2.326       .  S
C1702      C3040   1.480       .  S
C1702      O1740   1.269       .  A
C1702      O1708   1.275       .  A
O1703      C1710   1.276       .  A
H1704      C1717   1.081       .  S
C1705      H1730   1.081       .  S
C1705      O1719   1.240       .  S
C1705      O1720   1.275       .  A
O1706      C1729   1.273       .  A
O1707     Mg1721   2.123       .  S
O1708     Mg1738   2.322       .  S
C1709      C3033   1.465       .  S
C1709      O1722   1.271       .  A
C1709      O1714   1.273       .  A
C1710      C3263   1.475       .  S
C1710      O1737   1.270       .  A
Mg1711     O1718   2.120       .  S
Mg1711     O1719   2.119       .  S
Mg1711     O1712   2.306       .  S
Mg1711     O1713   2.306       .  S
Mg1711     O1740   2.236       .  S
O1713      C1717   1.273       .  A
O1714     Mg1721   2.305       .  S
O1715      C1734   1.271       .  A
O1716      C1736   1.278       .  A
O1716     Mg1732   2.343       .  S
O1718     Mg1732   2.122       .  S
O1718      C1729   1.239       .  S
O1719     Mg1738   2.132       .  S
O1720     Mg1732   2.314       .  S
Mg1721     O1737   2.239       .  S
O1722     Mg1738   2.257       .  S
H1723      C1728   1.081       .  S
O1724     Mg1732   2.128       .  S
O1724      C1727   1.240       .  S
H1725      C1727   1.081       .  S
H1726      C1729   1.081       .  S
O1731     Mg1738   2.304       .  S
C1734      C3050   1.466       .  S
C1734      O1739   1.273       .  A
O1735      C1736   1.270       .  A
C1736      C4420   1.494       .  S
C1741      C1742   1.409       .  A
C1741      C1746   1.399       .  A
C1741      C3563   1.489       .  S
C1742      C1743   1.413       .  A
C1742      H1747   1.082       .  S
C1743      C1744   1.413       .  A
C1743      C1752   1.498       .  S
C1744      C1745   1.404       .  A
C1744      H1748   1.083       .  S
C1745      C1746   1.396       .  A
C1745      C3860   1.477       .  S
C1746      H1749   1.084       .  S
C1750      C1751   1.407       .  A
C1750      C1755   1.408       .  A
C1750      C1772   1.493       .  S
C1751      C1752   1.408       .  A
C1751      H1756   1.083       .  S
C1752      C1753   1.410       .  A
C1753      C1754   1.411       .  A
C1753      H1757   1.082       .  S
C1754      C1755   1.409       .  A
C1754      C1761   1.499       .  S
C1755      H1758   1.083       .  S
C1759      C1760   1.407       .  A
C1759      C1764   1.400       .  A
C1759      C3010   1.487       .  S
C1760      C1761   1.411       .  A
C1760      H1765   1.082       .  S
C1761      C1762   1.413       .  A
C1762      C1763   1.409       .  A
C1762      H1766   1.083       .  S
C1763      C1764   1.399       .  A
C1763      C3020   1.488       .  S
C1764      H1767   1.083       .  S
C1768      C1769   1.397       .  A
C1768      C1773   1.408       .  A
C1768      C4263   1.485       .  S
C1769      C1770   1.394       .  A
C1769      H1774   1.085       .  S
C1770      C1771   1.403       .  A
C1770      C3053   1.476       .  S
C1771      C1772   1.412       .  A
C1771      H1775   1.083       .  S
C1772      C1773   1.413       .  A
C1773      H1776   1.083       .  S
C1777      C1778   1.394       .  A
C1777      C1782   1.402       .  A
C1777      C3000   1.476       .  S
C1778      C1779   1.396       .  A
C1778      H1783   1.085       .  S
C1779      C1780   1.408       .  A
C1779      C3723   1.487       .  S
C1780      C1781   1.415       .  A
C1780      H1784   1.083       .  S
C1781      C1782   1.413       .  A
C1781      C1788   1.493       .  S
C1782      H1785   1.083       .  S
C1786      C1787   1.407   1_565  A
C1786      C1791   1.408       .  A
C1786      C1808   1.493       .  S
C1787      C1788   1.408       .  A
C1787      H1792   1.083       .  S
C1788      C1789   1.409   1_545  A
C1789      C1790   1.408       .  A
C1789      H1793   1.083       .  S
C1790      C1791   1.407       .  A
C1790      C1799   1.493       .  S
C1791      H1794   1.083       .  S
C1795      C1796   1.396       .  A
C1795      C1800   1.405       .  A
C1795      C4383   1.480       .  S
C1796      C1797   1.397       .  A
C1796      H1801   1.085       .  S
C1797      C1798   1.406       .  A
C1797      C4073   1.484       .  S
C1798      C1799   1.413       .  A
C1798      H1802   1.083       .  S
C1799      C1800   1.413       .  A
C1800      H1803   1.083       .  S
C1804      C1805   1.392   1_565  A
C1804      C1809   1.401       .  A
C1804      C3773   1.474       .  S
C1805      C1806   1.400       .  A
C1805      H1810   1.085       .  S
C1806      C1807   1.410       .  A
C1806      C2990   1.490       .  S
C1807      C1808   1.416   1_545  A
C1807      H1811   1.083       .  S
C1808      C1809   1.412       .  A
C1809      H1812   1.083       .  S
C1813      C1814   1.397       .  A
C1813      C1818   1.405       .  A
C1813      C3363   1.484       .  S
C1814      C1815   1.396       .  A
C1814      H1819   1.084       .  S
C1815      C1816   1.409       .  A
C1815      C3993   1.493       .  S
C1816      C1817   1.414       .  A
C1816      H1820   1.082       .  S
C1817      C1818   1.414       .  A
C1817      C1833   1.494       .  S
C1818      H1821   1.083       .  S
C1822      C1823   1.398       .  A
C1822      C1827   1.407       .  A
C1822      C2980   1.487       .  S
C1823      C1824   1.396       .  A
C1823      H1828   1.084       .  S
C1824      C1825   1.404       .  A
C1824      C4233   1.481       .  S
C1825      C1826   1.412       .  A
C1825      H1829   1.083       .  S
C1826      C1827   1.412       .  A
C1826      C1831   1.491       .  S
C1827      H1830   1.083       .  S
C1831      C1832   1.407       .  A
C1831      C1836   1.407       .  A
C1832      C1833   1.408       .  A
C1832      H1837   1.083       .  S
C1833      C1834   1.409       .  A
C1834      C1835   1.408       .  A
C1834      H1838   1.083       .  S
C1835      C1836   1.407       .  A
C1835      C1842   1.492       .  S
C1836      H1839   1.083       .  S
C1840      C1841   1.406       .  A
C1840      C1845   1.398       .  A
C1840      C3103   1.484       .  S
C1841      C1842   1.411       .  A
C1841      H1846   1.083       .  S
C1842      C1843   1.413       .  A
C1843      C1844   1.407       .  A
C1843      H1847   1.083       .  S
C1844      C1845   1.398       .  A
C1844      C2970   1.488       .  S
C1845      H1848   1.084       .  S
O1849     Mg1851   2.116       .  S
O1849     Mg1857   2.136       .  S
O1849      C1884   1.239       .  S
C1850      H1889   1.081       .  S
C1850      O1863   1.240       .  S
C1850      O1887   1.273       .  A
Mg1851     O1880   2.131       .  S
Mg1851     O1895   2.297       .  S
Mg1851     O1891   2.254       .  S
Mg1851     O1862   2.301       .  S
O1852     Mg1894   2.134       .  S
O1852     Mg1877   2.124       .  S
O1852      C1873   1.240       .  S
O1853      C1884   1.272       .  A
O1853     Mg1877   2.299       .  S
C1854      C2960   1.471       .  S
C1854      O1856   1.272       .  A
C1854      O1868   1.277       .  A
O1855      C1883   1.273       .  A
O1855     Mg1857   2.301       .  S
O1856     Mg1888   2.252       .  S
Mg1857     O1863   2.116       .  S
Mg1857     O1871   2.263       .  S
Mg1857     O1859   2.298       .  S
C1858      C3753   1.484       .  S
C1858      O1896   1.273       .  A
C1858      O1864   1.275       .  A
O1859      C1866   1.275       .  A
H1860      C1873   1.081       .  S
C1861      H1886   1.081       .  S
C1861      O1875   1.239       .  S
C1861      O1876   1.273       .  A
O1862      C1885   1.273       .  A
O1863     Mg1877   2.137       .  S
O1864     Mg1894   2.296       .  S
C1865      C3923   1.487       .  S
C1865      O1878   1.272       .  A
C1865      O1870   1.275       .  A
C1866      C2950   1.490       .  S
C1866      O1893   1.273       .  A
Mg1867     O1874   2.124       .  S
Mg1867     O1875   2.138       .  S
Mg1867     O1868   2.321       .  S
Mg1867     O1869   2.307       .  S
Mg1867     O1896   2.271       .  S
O1869      C1873   1.274       .  A
O1870     Mg1877   2.299       .  S
O1871      C1890   1.272       .  A
O1872      C1892   1.276       .  A
O1872     Mg1888   2.322       .  S
O1874     Mg1888   2.138       .  S
O1874      C1885   1.240       .  S
O1875     Mg1894   2.127       .  S
O1876     Mg1888   2.302       .  S
Mg1877     O1893   2.272       .  S
O1878     Mg1894   2.271       .  S
H1879      C1884   1.081       .  S
O1880     Mg1888   2.118       .  S
O1880      C1883   1.239       .  S
H1881      C1883   1.081       .  S
H1882      C1885   1.081       .  S
O1887     Mg1894   2.302       .  S
C1890      C2983   1.489       .  S
C1890      O1895   1.275       .  A
O1891      C1892   1.270       .  A
C1892      C3023   1.469       .  S
O1897     Mg1899   2.126       .  S
O1897     Mg1905   2.134       .  S
O1897      C1932   1.239       .  S
C1898      H1937   1.081       .  S
C1898      O1911   1.239       .  S
C1898      O1935   1.273       .  A
Mg1899     O1928   2.132       .  S
Mg1899     O1943   2.300       .  S
Mg1899     O1939   2.271       .  S
Mg1899     O1910   2.305       .  S
O1900     Mg1942   2.135       .  S
O1900     Mg1925   2.124   1_655  S
O1900      C1921   1.240       .  S
O1901      C1932   1.273   1_455  A
O1901     Mg1925   2.307       .  S
C1902      C3960   1.483       .  S
C1902      O1904   1.272       .  A
C1902      O1916   1.276       .  A
O1903      C1931   1.274       .  A
O1903     Mg1905   2.307       .  S
O1904     Mg1936   2.265       .  S
Mg1905     O1911   2.120       .  S
Mg1905     O1919   2.263       .  S
Mg1905     O1907   2.304   1_655  S
C1906      C2920   1.489       .  S
C1906      O1944   1.272       .  A
C1906      O1912   1.276       .  A
O1907      C1914   1.276       .  A
H1908      C1921   1.081       .  S
C1909      H1934   1.081       .  S
C1909      O1923   1.239       .  S
C1909      O1924   1.273       .  A
O1910      C1933   1.273       .  A
O1911     Mg1925   2.135   1_655  S
O1912     Mg1942   2.305       .  S
C1913      C2940   1.470       .  S
C1913      O1926   1.271       .  A
C1913      O1918   1.276       .  A
C1914      C4153   1.483       .  S
C1914      O1941   1.273       .  A
Mg1915     O1922   2.120       .  S
Mg1915     O1923   2.130       .  S
Mg1915     O1916   2.309       .  S
Mg1915     O1917   2.305       .  S
Mg1915     O1944   2.267       .  S
O1917      C1921   1.274       .  A
O1918     Mg1925   2.316   1_655  S
O1919      C1938   1.271       .  A
O1920      C1940   1.275       .  A
O1920     Mg1936   2.301       .  S
O1922     Mg1936   2.131       .  S
O1922      C1933   1.239       .  S
O1923     Mg1942   2.118       .  S
O1924     Mg1936   2.303       .  S
Mg1925     O1941   2.271       .  S
O1926     Mg1942   2.253       .  S
H1927      C1932   1.081   1_455  S
O1928     Mg1936   2.126       .  S
O1928      C1931   1.240       .  S
H1929      C1931   1.081       .  S
H1930      C1933   1.081       .  S
O1935     Mg1942   2.299       .  S
C1938      C4323   1.491       .  S
C1938      O1943   1.275       .  A
O1939      C1940   1.272       .  A
C1940      C2930   1.478       .  S
C1945      C1946   1.407       .  A
C1945      C1950   1.398       .  A
C1945      C3353   1.481       .  S
C1946      C1947   1.415       .  A
C1946      H1951   1.083       .  S
C1947      C1948   1.411       .  A
C1947      C1956   1.492       .  S
C1948      C1949   1.400       .  A
C1948      H1952   1.083       .  S
C1949      C1950   1.391       .  A
C1949      C2910   1.470       .  S
C1950      H1953   1.085       .  S
C1954      C1955   1.408       .  A
C1954      C1959   1.410       .  A
C1954      C1976   1.498       .  S
C1955      C1956   1.408       .  A
C1955      H1960   1.082       .  S
C1956      C1957   1.406       .  A
C1957      C1958   1.409       .  A
C1957      H1961   1.083       .  S
C1958      C1959   1.410       .  A
C1958      C1965   1.497       .  S
C1959      H1962   1.082       .  S
C1963      C1964   1.411   1_455  A
C1963      C1968   1.401       .  A
C1963      C2943   1.493   1_455  S
C1964      C1965   1.413       .  A
C1964      H1969   1.082       .  S
C1965      C1966   1.411   1_655  A
C1966      C1967   1.402       .  A
C1966      H1970   1.083       .  S
C1967      C1968   1.395       .  A
C1967      C2900   1.473       .  S
C1968      H1971   1.084       .  S
C1972      C1973   1.398       .  A
C1972      C1977   1.406       .  A
C1972      C3793   1.486       .  S
C1973      C1974   1.399       .  A
C1973      H1978   1.083       .  S
C1974      C1975   1.410       .  A
C1974      C2963   1.496       .  S
C1975      C1976   1.415       .  A
C1975      H1979   1.081       .  S
C1976      C1977   1.412       .  A
C1977      H1980   1.083       .  S
O1981     Mg1983   2.120       .  S
O1981     Mg1989   2.132       .  S
O1981      C2016   1.240       .  S
C1982      H2021   1.081   1_655  S
C1982      O1995   1.239       .  S
C1982      O2019   1.272   1_655  A
Mg1983     O2012   2.138       .  S
Mg1983     O2027   2.306       .  S
Mg1983     O2023   2.257       .  S
Mg1983     O1994   2.300       .  S
O1984     Mg2026   2.141   1_655  S
O1984     Mg2009   2.125       .  S
O1984      C2005   1.240       .  S
O1985      C2016   1.273       .  A
O1985     Mg2009   2.304       .  S
C1986      C2913   1.471       .  S
C1986      O1988   1.271       .  A
C1986      O2000   1.274       .  A
O1987      C2015   1.274       .  A
O1987     Mg1989   2.305       .  S
O1988     Mg2020   2.268       .  S
Mg1989     O1995   2.118       .  S
Mg1989     O2003   2.261       .  S
Mg1989     O1991   2.292       .  S
C1990      C3390   1.470       .  S
C1990      O2028   1.270       .  A
C1990      O1996   1.275       .  A
O1991      C1998   1.274       .  A
H1992      C2005   1.081       .  S
C1993      H2018   1.081       .  S
C1993      O2007   1.239       .  S
C1993      O2008   1.273       .  A
O1994      C2017   1.272       .  A
O1995     Mg2009   2.138       .  S
O1996     Mg2026   2.316   1_655  S
C1997      C2880   1.466       .  S
C1997      O2010   1.271       .  A
C1997      O2002   1.277       .  A
C1998      C2893   1.487       .  S
C1998      O2025   1.273       .  A
Mg1999     O2006   2.121       .  S
Mg1999     O2007   2.126       .  S
Mg1999     O2000   2.299       .  S
Mg1999     O2001   2.301       .  S
Mg1999     O2028   2.253       .  S
O2001      C2005   1.274       .  A
O2002     Mg2009   2.313   1_455  S
O2003      C2022   1.271       .  A
O2004      C2024   1.275       .  A
O2004     Mg2020   2.311       .  S
O2006     Mg2020   2.131       .  S
O2006      C2017   1.238       .  S
O2007     Mg2026   2.116   1_655  S
O2008     Mg2020   2.306       .  S
Mg2009     O2025   2.277       .  S
O2010     Mg2026   2.245       .  S
H2011      C2016   1.081       .  S
O2012     Mg2020   2.125       .  S
O2012      C2015   1.240       .  S
H2013      C2015   1.081       .  S
H2014      C2017   1.081       .  S
O2019     Mg2026   2.298       .  S
C2022      C3540   1.491       .  S
C2022      O2027   1.276       .  A
O2023      C2024   1.271       .  A
C2024      C3013   1.467       .  S
C2029      C2030   1.396       .  A
C2029      C2034   1.408       .  A
C2029      C2870   1.489       .  S
C2030      C2031   1.395       .  A
C2030      H2035   1.085       .  S
C2031      C2032   1.405   1_455  A
C2031      C3433   1.484   1_455  S
C2032      C2033   1.416       .  A
C2032      H2036   1.083       .  S
C2033      C2034   1.416   1_655  A
C2033      C2038   1.495       .  S
C2034      H2037   1.082       .  S
C2038      C2039   1.408       .  A
C2038      C2043   1.409       .  A
C2039      C2040   1.408       .  A
C2039      H2044   1.083       .  S
C2040      C2041   1.408       .  A
C2040      C2060   1.495       .  S
C2041      C2042   1.409       .  A
C2041      H2045   1.083       .  S
C2042      C2043   1.409       .  A
C2042      C2051   1.495       .  S
C2043      H2046   1.083       .  S
C2047      C2048   1.395       .  A
C2047      C2052   1.405   1_556  A
C2047      C3453   1.477   1_556  S
C2048      C2049   1.398       .  A
C2048      H2053   1.085       .  S
C2049      C2050   1.407       .  A
C2049      C2890   1.483       .  S
C2050      C2051   1.413   1_556  A
C2050      H2054   1.083       .  S
C2051      C2052   1.413       .  A
C2052      H2055   1.083       .  S
C2056      C2057   1.395       .  A
C2056      C2061   1.402       .  A
C2056      C2933   1.475       .  S
C2057      C2058   1.399       .  A
C2057      H2062   1.085       .  S
C2058      C2059   1.408       .  A
C2058      C3883   1.485       .  S
C2059      C2060   1.414       .  A
C2059      H2063   1.083       .  S
C2060      C2061   1.412       .  A
C2061      H2064   1.083       .  S
C2065      C2066   1.403       .  A
C2065      C2070   1.394       .  A
C2065      C2860   1.475       .  S
C2066      C2067   1.412       .  A
C2066      H2071   1.083       .  S
C2067      C2068   1.413       .  A
C2067      C2094   1.495       .  S
C2068      C2069   1.409       .  A
C2068      H2072   1.083       .  S
C2069      C2070   1.398       .  A
C2069      C3030   1.485       .  S
C2070      H2073   1.084       .  S
C2074      C2075   1.400       .  A
C2074      C2079   1.408       .  A
C2074      C2953   1.488       .  S
C2075      C2076   1.394       .  A
C2075      H2080   1.084       .  S
C2076      C2077   1.402       .  A
C2076      C2850   1.473       .  S
C2077      C2078   1.410       .  A
C2077      H2081   1.083       .  S
C2078      C2079   1.414       .  A
C2078      C2092   1.493       .  S
C2079      H2082   1.083       .  S
C2083      C2084   1.395       .  A
C2083      C2088   1.404       .  A
C2083      C3913   1.478       .  S
C2084      C2085   1.393       .  A
C2084      H2089   1.085       .  S
C2085      C2086   1.402       .  A
C2085      C3713   1.474       .  S
C2086      C2087   1.413       .  A
C2086      H2090   1.083       .  S
C2087      C2088   1.414       .  A
C2087      C2096   1.489       .  S
C2088      H2091   1.083       .  S
C2092      C2093   1.410       .  A
C2092      C2097   1.407       .  A
C2093      C2094   1.409       .  A
C2093      H2098   1.082       .  S
C2094      C2095   1.408       .  A
C2095      C2096   1.406       .  A
C2095      H2099   1.083       .  S
C2096      C2097   1.405       .  A
C2097      H2100   1.083       .  S
C2101      C2102   1.395       .  A
C2101      C2106   1.407       .  A
C2101      C3143   1.489       .  S
C2102      C2103   1.398       .  A
C2102      H2107   1.084       .  S
C2103      C2104   1.407       .  A
C2103      C3303   1.487       .  S
C2104      C2105   1.414       .  A
C2104      H2108   1.083       .  S
C2105      C2106   1.414       .  A
C2105      C2130   1.494       .  S
C2106      H2109   1.082       .  S
C2110      C2111   1.394       .  A
C2110      C2115   1.405       .  A
C2110      C3900   1.479       .  S
C2111      C2112   1.398       .  A
C2111      H2116   1.084       .  S
C2112      C2113   1.406       .  A
C2112      C3080   1.485       .  S
C2113      C2114   1.412       .  A
C2113      H2117   1.083       .  S
C2114      C2115   1.413       .  A
C2114      C2132   1.492       .  S
C2115      H2118   1.083       .  S
C2119      C2120   1.404       .  A
C2119      C2124   1.396       .  A
C2119      C2830   1.479       .  S
C2120      C2121   1.413       .  A
C2120      H2125   1.083       .  S
C2121      C2122   1.413       .  A
C2121      C2128   1.494       .  S
C2122      C2123   1.408       .  A
C2122      H2126   1.083       .  S
C2123      C2124   1.399       .  A
C2123      C2840   1.488       .  S
C2124      H2127   1.084       .  S
C2128      C2129   1.409       .  A
C2128      C2133   1.407       .  A
C2129      C2130   1.409       .  A
C2129      H2134   1.083       .  S
C2130      C2131   1.408       .  A
C2131      C2132   1.407       .  A
C2131      H2135   1.083       .  S
C2132      C2133   1.408       .  A
C2133      H2136   1.083       .  S
C2137      C2138   1.392       .  A
C2137      C2142   1.400       .  A
C2137      C3703   1.471       .  S
C2138      C2139   1.397       .  A
C2138      H2143   1.085       .  S
C2139      C2140   1.406       .  A
C2139      C4513   1.481       .  S
C2140      C2141   1.414       .  A
C2140      H2144   1.083       .  S
C2141      C2142   1.412       .  A
C2141      C2157   1.488       .  S
C2142      H2145   1.083       .  S
C2146      C2147   1.394       .  A
C2146      C2151   1.402       .  A
C2146      C2820   1.474       .  S
C2147      C2148   1.399       .  A
C2147      H2152   1.084       .  S
C2148      C2149   1.407       .  A
C2148      C3983   1.486       .  S
C2149      C2150   1.412       .  A
C2149      H2153   1.083       .  S
C2150      C2151   1.411       .  A
C2150      C2155   1.491       .  S
C2151      H2154   1.083       .  S
C2155      C2156   1.406       .  A
C2155      C2160   1.407       .  A
C2156      C2157   1.407       .  A
C2156      H2161   1.083       .  S
C2157      C2158   1.406       .  A
C2158      C2159   1.407       .  A
C2158      H2162   1.083       .  S
C2159      C2160   1.408       .  A
C2159      C2168   1.491       .  S
C2160      H2163   1.083       .  S
C2164      C2165   1.399       .  A
C2164      C2169   1.408       .  A
C2164      C2810   1.488       .  S
C2165      C2166   1.396       .  A
C2165      H2170   1.084       .  S
C2166      C2167   1.403       .  A
C2166      C4113   1.478       .  S
C2167      C2168   1.410       .  A
C2167      H2171   1.083       .  S
C2168      C2169   1.412       .  A
C2169      H2172   1.083       .  S
O2173     Mg2175   2.125       .  S
O2173     Mg2181   2.131       .  S
O2173      C2208   1.240       .  S
C2174      H2213   1.081       .  S
C2174      O2187   1.240       .  S
C2174      O2211   1.274       .  A
Mg2175     O2204   2.131       .  S
Mg2175     O2219   2.311       .  S
Mg2175     O2215   2.266       .  S
Mg2175     O2186   2.303       .  S
O2176     Mg2218   2.133       .  S
O2176     Mg2201   2.124       .  S
O2176      C2197   1.239       .  S
O2177      C2208   1.274       .  A
O2177     Mg2201   2.305       .  S
C2178      C2803   1.469       .  S
C2178      O2180   1.271       .  A
C2178      O2192   1.275       .  A
O2179      C2207   1.273       .  A
O2179     Mg2181   2.302       .  S
O2180     Mg2212   2.257       .  S
Mg2181     O2187   2.121       .  S
Mg2181     O2195   2.257       .  S
Mg2181     O2183   2.296       .  S
C2182      C3343   1.466       .  S
C2182      O2220   1.271       .  A
C2182      O2188   1.276       .  A
O2183      C2190   1.274       .  A
H2184      C2197   1.081       .  S
C2185      H2210   1.081       .  S
C2185      O2199   1.240       .  S
C2185      O2200   1.273       .  A
O2186      C2209   1.273       .  A
O2187     Mg2201   2.132       .  S
O2188     Mg2218   2.316       .  S
C2189      C3153   1.480       .  S
C2189      O2202   1.273       .  A
C2189      O2194   1.276       .  A
C2190      C2843   1.490       .  S
C2190      O2217   1.272       .  A
Mg2191     O2198   2.122       .  S
Mg2191     O2199   2.137       .  S
Mg2191     O2192   2.315       .  S
Mg2191     O2193   2.303       .  S
Mg2191     O2220   2.250       .  S
O2193      C2197   1.273       .  A
O2194     Mg2201   2.304       .  S
O2195      C2214   1.270       .  A
O2196      C2216   1.276       .  A
O2196     Mg2212   2.307       .  S
O2198     Mg2212   2.132       .  S
O2198      C2209   1.240       .  S
O2199     Mg2218   2.129       .  S
O2200     Mg2212   2.303       .  S
Mg2201     O2217   2.270       .  S
O2202     Mg2218   2.273       .  S
H2203      C2208   1.081       .  S
O2204     Mg2212   2.116       .  S
O2204      C2207   1.239       .  S
H2205      C2207   1.081       .  S
H2206      C2209   1.081       .  S
O2211     Mg2218   2.307       .  S
C2214      C2823   1.465       .  S
C2214      O2219   1.275       .  A
O2215      C2216   1.272       .  A
C2216      C3073   1.491       .  S
O2221     Mg2223   2.120       .  S
O2221     Mg2229   2.123       .  S
O2221      C2256   1.239       .  S
C2222      H2261   1.081       .  S
C2222      O2235   1.239       .  S
C2222      O2259   1.273   1_565  A
Mg2223     O2252   2.117   1_565  S
Mg2223     O2267   2.302       .  S
Mg2223     O2263   2.230       .  S
Mg2223     O2234   2.301       .  S
O2224     Mg2266   2.123   1_565  S
O2224     Mg2249   2.124       .  S
O2224      C2245   1.240       .  S
O2225      C2256   1.274       .  A
O2225     Mg2249   2.309       .  S
C2226      C4133   1.464       .  S
C2226      O2228   1.272       .  A
C2226      O2240   1.274       .  A
O2227      C2255   1.275       .  A
O2227     Mg2229   2.312   1_545  S
O2228     Mg2260   2.252       .  S
Mg2229     O2235   2.126       .  S
Mg2229     O2243   2.258       .  S
Mg2229     O2231   2.327       .  S
C2230      C2790   1.469       .  S
C2230      O2268   1.271       .  A
C2230      O2236   1.273       .  A
O2231      C2238   1.276       .  A
H2232      C2245   1.081       .  S
C2233      H2258   1.081       .  S
C2233      O2247   1.240       .  S
C2233      O2248   1.273       .  A
O2234      C2257   1.272   1_565  A
O2235     Mg2249   2.119       .  S
O2236     Mg2266   2.308       .  S
C2237      C2770   1.488       .  S
C2237      O2250   1.269   1_565  A
C2237      O2242   1.275       .  A
C2238      C3170   1.476       .  S
C2238      O2265   1.270       .  A
Mg2239     O2246   2.117       .  S
Mg2239     O2247   2.129       .  S
Mg2239     O2240   2.305       .  S
Mg2239     O2241   2.302   1_545  S
Mg2239     O2268   2.248       .  S
O2241      C2245   1.273       .  A
O2242     Mg2249   2.326       .  S
O2243      C2262   1.271       .  A
O2244      C2264   1.277       .  A
O2244     Mg2260   2.339       .  S
O2246     Mg2260   2.125       .  S
O2246      C2257   1.239       .  S
O2247     Mg2266   2.114       .  S
O2248     Mg2260   2.303       .  S
Mg2249     O2265   2.235       .  S
O2250     Mg2266   2.227       .  S
H2251      C2256   1.081       .  S
O2252     Mg2260   2.129       .  S
O2252      C2255   1.241       .  S
H2253      C2255   1.081       .  S
H2254      C2257   1.081       .  S
O2259     Mg2266   2.306       .  S
C2262      C2780   1.465       .  S
C2262      O2267   1.272       .  A
O2263      C2264   1.269   1_565  A
C2264      C2993   1.491       .  S
C2269      C2270   1.393       .  A
C2269      C2274   1.402       .  A
C2269      C2760   1.475       .  S
C2270      C2271   1.400   1_565  A
C2270      H2275   1.084       .  S
C2271      C2272   1.412       .  A
C2271      C3690   1.490       .  S
C2272      C2273   1.415   1_545  A
C2272      H2276   1.082       .  S
C2273      C2274   1.412       .  A
C2273      C2278   1.499       .  S
C2274      H2277   1.083       .  S
C2278      C2279   1.410   1_565  A
C2278      C2283   1.411       .  A
C2279      C2280   1.410       .  A
C2279      H2284   1.082       .  S
C2280      C2281   1.409   1_545  A
C2280      C2291   1.497       .  S
C2281      C2282   1.407       .  A
C2281      H2285   1.082       .  S
C2282      C2283   1.408       .  A
C2282      C2300   1.499       .  S
C2283      H2286   1.082       .  S
C2287      C2288   1.400       .  A
C2287      C2292   1.410       .  A
C2287      C3893   1.488       .  S
C2288      C2289   1.394       .  A
C2288      H2293   1.084       .  S
C2289      C2290   1.402       .  A
C2289      C2793   1.475       .  S
C2290      C2291   1.412       .  A
C2290      H2294   1.083       .  S
C2291      C2292   1.414       .  A
C2292      H2295   1.082       .  S
C2296      C2297   1.399       .  A
C2296      C2301   1.407       .  A
C2296      C3660   1.484       .  S
C2297      C2298   1.400       .  A
C2297      H2302   1.084       .  S
C2298      C2299   1.409       .  A
C2298      C2800   1.487       .  S
C2299      C2300   1.412       .  A
C2299      H2303   1.083       .  S
C2300      C2301   1.412       .  A
C2301      H2304   1.083       .  S
C2305      C2306   1.397       .  A
C2305      C2310   1.407       .  A
C2305      C2923   1.486       .  S
C2306      C2307   1.398       .  A
C2306      H2311   1.084       .  S
C2307      C2308   1.406       .  A
C2307      C3800   1.485       .  S
C2308      C2309   1.412       .  A
C2308      H2312   1.083       .  S
C2309      C2310   1.414       .  A
C2309      C2316   1.494       .  S
C2310      H2313   1.083       .  S
C2314      C2315   1.410       .  A
C2314      C2319   1.410       .  A
C2314      C2336   1.496       .  S
C2315      C2316   1.409   1_565  A
C2315      H2320   1.083       .  S
C2316      C2317   1.407       .  A
C2317      C2318   1.408   1_545  A
C2317      H2321   1.083       .  S
C2318      C2319   1.407       .  A
C2318      C2325   1.492       .  S
C2319      H2322   1.083       .  S
C2323      C2324   1.408       .  A
C2323      C2328   1.398       .  A
C2323      C3463   1.487       .  S
C2324      C2325   1.415       .  A
C2324      H2329   1.083       .  S
C2325      C2326   1.413   1_565  A
C2326      C2327   1.404       .  A
C2326      H2330   1.083       .  S
C2327      C2328   1.396   1_545  A
C2327      C2750   1.485       .  S
C2328      H2331   1.084       .  S
C2332      C2333   1.397       .  A
C2332      C2337   1.408       .  A
C2332      C2783   1.488       .  S
C2333      C2334   1.396       .  A
C2333      H2338   1.084       .  S
C2334      C2335   1.407   1_455  A
C2334      C3123   1.488   1_455  S
C2335      C2336   1.414       .  A
C2335      H2339   1.083       .  S
C2336      C2337   1.414   1_655  A
C2337      H2340   1.082       .  S
O2341     Mg2343   2.117       .  S
O2341     Mg2349   2.130   1_565  S
O2341      C2376   1.240       .  S
C2342      H2381   1.081       .  S
C2342      O2355   1.239       .  S
C2342      O2379   1.271       .  A
Mg2343     O2372   2.140       .  S
Mg2343     O2387   2.315       .  S
Mg2343     O2383   2.251       .  S
Mg2343     O2354   2.304       .  S
O2344     Mg2386   2.136       .  S
O2344     Mg2369   2.122       .  S
O2344      C2365   1.240       .  S
O2345      C2376   1.273       .  A
O2345     Mg2369   2.303   1_565  S
C2346      C2763   1.468       .  S
C2346      O2348   1.271       .  A
C2346      O2360   1.276       .  A
O2347      C2375   1.274   1_545  A
O2347     Mg2349   2.304       .  S
O2348     Mg2380   2.266       .  S
Mg2349     O2355   2.113       .  S
Mg2349     O2363   2.253   1_545  S
Mg2349     O2351   2.299       .  S
C2350      C3743   1.491       .  S
C2350      O2388   1.272       .  A
C2350      O2356   1.274       .  A
O2351      C2358   1.275       .  A
H2352      C2365   1.081       .  S
C2353      H2378   1.081       .  S
C2353      O2367   1.239       .  S
C2353      O2368   1.273       .  A
O2354      C2377   1.273       .  A
O2355     Mg2369   2.137       .  S
O2356     Mg2386   2.295       .  S
C2357      C3973   1.470       .  S
C2357      O2370   1.271       .  A
C2357      O2362   1.277       .  A
C2358      C2753   1.488       .  S
C2358      O2385   1.273       .  A
Mg2359     O2366   2.127       .  S
Mg2359     O2367   2.131   1_565  S
Mg2359     O2360   2.314       .  S
Mg2359     O2361   2.304       .  S
Mg2359     O2388   2.271   1_565  S
O2361      C2365   1.274   1_565  A
O2362     Mg2369   2.320       .  S
O2363      C2382   1.270       .  A
O2364      C2384   1.275       .  A
O2364     Mg2380   2.312       .  S
O2366     Mg2380   2.132       .  S
O2366      C2377   1.239       .  S
O2367     Mg2386   2.121       .  S
O2368     Mg2380   2.306   1_545  S
Mg2369     O2385   2.272       .  S
O2370     Mg2386   2.253       .  S
H2371      C2376   1.081       .  S
O2372     Mg2380   2.129       .  S
O2372      C2375   1.241       .  S
H2373      C2375   1.081       .  S
H2374      C2377   1.081       .  S
O2379     Mg2386   2.294       .  S
C2382      C3593   1.469       .  S
C2382      O2387   1.275       .  A
O2383      C2384   1.271       .  A
C2384      C3063   1.467       .  S
O2389     Mg2391   2.123       .  S
O2389     Mg2397   2.133       .  S
O2389      C2424   1.239       .  S
C2390      H2429   1.081       .  S
C2390      O2403   1.240       .  S
C2390      O2427   1.274       .  A
Mg2391     O2420   2.115       .  S
Mg2391     O2435   2.295       .  S
Mg2391     O2431   2.233       .  S
Mg2391     O2402   2.305       .  S
O2392     Mg2434   2.112       .  S
O2392     Mg2417   2.130       .  S
O2392      C2413   1.239       .  S
O2393      C2424   1.273       .  A
O2393     Mg2417   2.304       .  S
C2394      C2863   1.469       .  S
C2394      O2396   1.271       .  A
C2394      O2408   1.274       .  A
O2395      C2423   1.273       .  A
O2395     Mg2397   2.307       .  S
O2396     Mg2428   2.250       .  S
Mg2397     O2403   2.121       .  S
Mg2397     O2411   2.254       .  S
Mg2397     O2399   2.321       .  S
C2398      C3003   1.486       .  S
C2398      O2436   1.269       .  A
C2398      O2404   1.275       .  A
O2399      C2406   1.276       .  A
H2400      C2413   1.081       .  S
C2401      H2426   1.081       .  S
C2401      O2415   1.240       .  S
C2401      O2416   1.274       .  A
O2402      C2425   1.273       .  A
O2403     Mg2417   2.123       .  S
O2404     Mg2434   2.323       .  S
C2405      C4123   1.490       .  S
C2405      O2418   1.269       .  A
C2405      O2410   1.276       .  A
C2406      C2903   1.475       .  S
C2406      O2433   1.272       .  A
Mg2407     O2414   2.113       .  S
Mg2407     O2415   2.123       .  S
Mg2407     O2408   2.308       .  S
Mg2407     O2409   2.310       .  S
Mg2407     O2436   2.236       .  S
O2409      C2413   1.273       .  A
O2410     Mg2417   2.331       .  S
O2411      C2430   1.270       .  A
O2412      C2432   1.276       .  A
O2412     Mg2428   2.333       .  S
O2414     Mg2428   2.126       .  S
O2414      C2425   1.239       .  S
O2415     Mg2434   2.127       .  S
O2416     Mg2428   2.307       .  S
Mg2417     O2433   2.246       .  S
O2418     Mg2434   2.233       .  S
H2419      C2424   1.081       .  S
O2420     Mg2428   2.127       .  S
O2420      C2423   1.240       .  S
H2421      C2423   1.081       .  S
H2422      C2425   1.081       .  S
O2427     Mg2434   2.309       .  S
C2430      C3243   1.462       .  S
C2430      O2435   1.271       .  A
O2431      C2432   1.269       .  A
C2432      C2740   1.489       .  S
C2437      C2438   1.407       .  A
C2437      C2442   1.396       .  A
C2437      C2883   1.491       .  S
C2438      C2439   1.413       .  A
C2438      H2443   1.082       .  S
C2439      C2440   1.414       .  A
C2439      C2448   1.494       .  S
C2440      C2441   1.406       .  A
C2440      H2444   1.083       .  S
C2441      C2442   1.397       .  A
C2441      C2730   1.485       .  S
C2442      H2445   1.084       .  S
C2446      C2447   1.408       .  A
C2446      C2451   1.406       .  A
C2446      C2468   1.488       .  S
C2447      C2448   1.407       .  A
C2447      H2452   1.083       .  S
C2448      C2449   1.409       .  A
C2449      C2450   1.408       .  A
C2449      H2453   1.083       .  S
C2450      C2451   1.405       .  A
C2450      C2457   1.490       .  S
C2451      H2454   1.083       .  S
C2455      C2456   1.405       .  A
C2455      C2460   1.396       .  A
C2455      C2743   1.480       .  S
C2456      C2457   1.415       .  A
C2456      H2461   1.083       .  S
C2457      C2458   1.412       .  A
C2458      C2459   1.403       .  A
C2458      H2462   1.083       .  S
C2459      C2460   1.394       .  A
C2459      C3213   1.477       .  S
C2460      H2463   1.085       .  S
C2464      C2465   1.398       .  A
C2464      C2469   1.407       .  A
C2464      C4373   1.487       .  S
C2465      C2466   1.394       .  A
C2465      H2470   1.084       .  S
C2466      C2467   1.401       .  A
C2466      C3043   1.472       .  S
C2467      C2468   1.411       .  A
C2467      H2471   1.083       .  S
C2468      C2469   1.412       .  A
C2469      H2472   1.083       .  S
C2473      C2474   1.397       .  A
C2473      C2478   1.405       .  A
C2473      C2723   1.476       .  S
C2474      C2475   1.394       .  A
C2474      H2479   1.085       .  S
C2475      C2476   1.402       .  A
C2475      C3133   1.473       .  S
C2476      C2477   1.411       .  A
C2476      H2480   1.083       .  S
C2477      C2478   1.414       .  A
C2477      C2493   1.491       .  S
C2478      H2481   1.083       .  S
C2482      C2483   1.400       .  A
C2482      C2487   1.391       .  A
C2482      C3293   1.473       .  S
C2483      C2484   1.412       .  A
C2483      H2488   1.083       .  S
C2484      C2485   1.416       .  A
C2484      C2495   1.490       .  S
C2485      C2486   1.409       .  A
C2485      H2489   1.083       .  S
C2486      C2487   1.397       .  A
C2486      C2713   1.489       .  S
C2487      H2490   1.085       .  S
C2491      C2492   1.406       .  A
C2491      C2496   1.407       .  A
C2491      C2502   1.486       .  S
C2492      C2493   1.406       .  A
C2492      H2497   1.083       .  S
C2493      C2494   1.408       .  A
C2494      C2495   1.408       .  A
C2494      H2498   1.083       .  S
C2495      C2496   1.405       .  A
C2496      H2499   1.084       .  S
C2500      C2501   1.405       .  A
C2500      C2505   1.397   1_554  A
C2500      C3420   1.482       .  S
C2501      C2502   1.412       .  A
C2501      H2506   1.083       .  S
C2502      C2503   1.411   1_554  A
C2503      C2504   1.404       .  A
C2503      H2507   1.083       .  S
C2504      C2505   1.395       .  A
C2504      C3203   1.483       .  S
C2505      H2508   1.084       .  S
O2509     Mg2511   2.117       .  S
O2509     Mg2517   2.122       .  S
O2509      C2544   1.239       .  S
C2510      H2549   1.081       .  S
C2510      O2523   1.239       .  S
C2510      O2547   1.273       .  A
Mg2511     O2540   2.118       .  S
Mg2511     O2555   2.306       .  S
Mg2511     O2551   2.237   1_554  S
Mg2511     O2522   2.308   1_554  S
O2512     Mg2554   2.126       .  S
O2512     Mg2537   2.133       .  S
O2512      C2533   1.240       .  S
O2513      C2544   1.273       .  A
O2513     Mg2537   2.307       .  S
C2514      C2703   1.491       .  S
C2514      O2516   1.269   1_554  A
C2514      O2528   1.277       .  A
O2515      C2543   1.275       .  A
O2515     Mg2517   2.312       .  S
O2516     Mg2548   2.229   1_556  S
Mg2517     O2523   2.128       .  S
Mg2517     O2531   2.259       .  S
Mg2517     O2519   2.338       .  S
C2518      C4393   1.471       .  S
C2518      O2556   1.271       .  A
C2518      O2524   1.275       .  A
O2519      C2526   1.277       .  A
H2520      C2533   1.081       .  S
C2521      H2546   1.081       .  S
C2521      O2535   1.239       .  S
C2521      O2536   1.273       .  A
O2522      C2545   1.273       .  A
O2523     Mg2537   2.117       .  S
O2524     Mg2554   2.320       .  S
C2525      C4170   1.487       .  S
C2525      O2538   1.270       .  A
C2525      O2530   1.275       .  A
C2526      C2720   1.487       .  S
C2526      O2553   1.270       .  A
Mg2527     O2534   2.125       .  S
Mg2527     O2535   2.125       .  S
Mg2527     O2528   2.337       .  S
Mg2527     O2529   2.307       .  S
Mg2527     O2556   2.250       .  S
O2529      C2533   1.274       .  A
O2530     Mg2537   2.321       .  S
O2531      C2550   1.271       .  A
O2532      C2552   1.274       .  A
O2532     Mg2548   2.321   1_556  S
O2534     Mg2548   2.114       .  S
O2534      C2545   1.239   1_554  S
O2535     Mg2554   2.116       .  S
O2536     Mg2548   2.305       .  S
Mg2537     O2553   2.240       .  S
O2538     Mg2554   2.231       .  S
H2539      C2544   1.081       .  S
O2540     Mg2548   2.129       .  S
O2540      C2543   1.240       .  S
H2541      C2543   1.081       .  S
H2542      C2545   1.081       .  S
O2547     Mg2554   2.306       .  S
C2550      C2873   1.466       .  S
C2550      O2555   1.273       .  A
O2551      C2552   1.269       .  A
C2552      C2733   1.490       .  S
O2557     Mg2559   2.119       .  S
O2557     Mg2565   2.126       .  S
O2557      C2592   1.239       .  S
C2558      H2597   1.081       .  S
C2558      O2571   1.239       .  S
C2558      O2595   1.274       .  A
Mg2559     O2588   2.125       .  S
Mg2559     O2603   2.307       .  S
Mg2559     O2599   2.234       .  S
Mg2559     O2570   2.302       .  S
O2560     Mg2602   2.116       .  S
O2560     Mg2585   2.128       .  S
O2560      C2581   1.240       .  S
O2561      C2592   1.274       .  A
O2561     Mg2585   2.308       .  S
C2562      C4030   1.482       .  S
C2562      O2564   1.271       .  A
C2562      O2576   1.275       .  A
O2563      C2591   1.274       .  A
O2563     Mg2565   2.305       .  S
O2564     Mg2596   2.245   1_556  S
Mg2565     O2571   2.127       .  S
Mg2565     O2579   2.254       .  S
Mg2565     O2567   2.336       .  S
C2566      C3480   1.491       .  S
C2566      O2604   1.270   1_554  A
C2566      O2572   1.274       .  A
O2567      C2574   1.277       .  A
H2568      C2581   1.081       .  S
C2569      H2594   1.081       .  S
C2569      O2583   1.239   1_556  S
C2569      O2584   1.273       .  A
O2570      C2593   1.273       .  A
O2571     Mg2585   2.113       .  S
O2572     Mg2602   2.323       .  S
C2573      C2690   1.490       .  S
C2573      O2586   1.269       .  A
C2573      O2578   1.275       .  A
C2574      C3180   1.492       .  S
C2574      O2601   1.270       .  A
Mg2575     O2582   2.120       .  S
Mg2575     O2583   2.116       .  S
Mg2575     O2576   2.321   1_554  S
Mg2575     O2577   2.312       .  S
Mg2575     O2604   2.239   1_554  S
O2577      C2581   1.275       .  A
O2578     Mg2585   2.328       .  S
O2579      C2598   1.272       .  A
O2580      C2600   1.275       .  A
O2580     Mg2596   2.324       .  S
O2582     Mg2596   2.121       .  S
O2582      C2593   1.239       .  S
O2583     Mg2602   2.121       .  S
O2584     Mg2596   2.308   1_556  S
Mg2585     O2601   2.238       .  S
O2586     Mg2602   2.235       .  S
H2587      C2592   1.081       .  S
O2588     Mg2596   2.126       .  S
O2588      C2591   1.240       .  S
H2589      C2591   1.081       .  S
H2590      C2593   1.081       .  S
O2595     Mg2602   2.311       .  S
C2598      C3333   1.467       .  S
C2598      O2603   1.273       .  A
O2599      C2600   1.270       .  A
C2600      C2710   1.488       .  S
C2605      C2606   1.399       .  A
C2605      C2610   1.408       .  A
C2605      C2773   1.490       .  S
C2606      C2607   1.394   1_565  A
C2606      H2611   1.084       .  S
C2607      C2608   1.403       .  A
C2607      C3673   1.484       .  S
C2608      C2609   1.412       .  A
C2608      H2612   1.082       .  S
C2609      C2610   1.415   1_545  A
C2609      C2616   1.492       .  S
C2610      H2613   1.083       .  S
C2614      C2615   1.405       .  A
C2614      C2619   1.405   1_565  A
C2614      C2627   1.486       .  S
C2615      C2616   1.407   1_565  A
C2615      H2620   1.084       .  S
C2616      C2617   1.410       .  A
C2617      C2618   1.407       .  A
C2617      H2621   1.083       .  S
C2618      C2619   1.407       .  A
C2618      C2636   1.491       .  S
C2619      H2622   1.084       .  S
C2623      C2624   1.395       .  A
C2623      C2628   1.402       .  A
C2623      C3443   1.479       .  S
C2624      C2625   1.395       .  A
C2624      H2629   1.085       .  S
C2625      C2626   1.405       .  A
C2625      C2693   1.483       .  S
C2626      C2627   1.414       .  A
C2626      H2630   1.083       .  S
C2627      C2628   1.412       .  A
C2628      H2631   1.083       .  S
C2632      C2633   1.398       .  A
C2632      C2637   1.408   1_556  A
C2632      C2700   1.486   1_556  S
C2633      C2634   1.393       .  A
C2633      H2638   1.085       .  S
C2634      C2635   1.402       .  A
C2634      C4343   1.479       .  S
C2635      C2636   1.413   1_556  A
C2635      H2639   1.083       .  S
C2636      C2637   1.414       .  A
C2637      H2640   1.083       .  S
O2641     Mg2643   2.121       .  S
O2641     Mg2649   2.141       .  S
O2641      C2676   1.239       .  S
C2642      H2681   1.081       .  S
C2642      O2655   1.240       .  S
C2642      O2679   1.274       .  A
Mg2643     O2672   2.128       .  S
Mg2643     O2687   2.299       .  S
Mg2643     O2683   2.267       .  S
Mg2643     O2654   2.309       .  S
O2644     Mg2686   2.129       .  S
O2644     Mg2669   2.117       .  S
O2644      C2665   1.239       .  S
O2645      C2676   1.272       .  A
O2645     Mg2669   2.299       .  S
C2646      C2973   1.490       .  S
C2646      O2648   1.272       .  A
C2646      O2660   1.276       .  A
O2647      C2675   1.273       .  A
O2647     Mg2649   2.305       .  S
O2648     Mg2680   2.265       .  S
Mg2649     O2655   2.125       .  S
Mg2649     O2663   2.273       .  S
Mg2649     O2651   2.323       .  S
C2650      C2833   1.482       .  S
C2650      O2688   1.273       .  A
C2650      O2656   1.275       .  A
O2651      C2658   1.277       .  A
H2652      C2665   1.081       .  S
C2653      H2678   1.081       .  S
C2653      O2667   1.240       .  S
C2653      O2668   1.273       .  A
O2654      C2677   1.274       .  A
O2655     Mg2669   2.135       .  S
O2656     Mg2686   2.302       .  S
C2657      C2813   1.490       .  S
C2657      O2670   1.271       .  A
C2657      O2662   1.275       .  A
C2658      C3223   1.469       .  S
C2658      O2685   1.270       .  A
Mg2659     O2666   2.122       .  S
Mg2659     O2667   2.134       .  S
Mg2659     O2660   2.305       .  S
Mg2659     O2661   2.303       .  S
Mg2659     O2688   2.272       .  S
O2661      C2665   1.272       .  A
O2662     Mg2669   2.301       .  S
O2663      C2682   1.274       .  A
O2664      C2684   1.275       .  A
O2664     Mg2680   2.302       .  S
O2666     Mg2680   2.131       .  S
O2666      C2677   1.240       .  S
O2667     Mg2686   2.117       .  S
O2668     Mg2680   2.302       .  S
Mg2669     O2685   2.246       .  S
O2670     Mg2686   2.260       .  S
H2671      C2676   1.081       .  S
O2672     Mg2680   2.126       .  S
O2672      C2675   1.239       .  S
H2673      C2675   1.081       .  S
H2674      C2677   1.081       .  S
O2679     Mg2686   2.305       .  S
C2682      C3273   1.490       .  S
C2682      O2687   1.275       .  A
O2683      C2684   1.271       .  A
C2684      C2853   1.475       .  S
C2689      C2690   1.414       .  A
C2689      C2694   1.405       .  A
C2689      F2696   1.357       .  S
C2690      C2691   1.412       .  A
C2691      C2692   1.391       .  A
C2691      F2698   1.358       .  S
C2692      C2693   1.405       .  A
C2692      F2697   1.359       .  S
C2693      C2694   1.405       .  A
C2694      F2695   1.357       .  S
C2699      C2700   1.406   1_556  A
C2699      C2704   1.389       .  A
C2699      F2706   1.359       .  S
C2700      C2701   1.406       .  A
C2701      C2702   1.407       .  A
C2701      F2708   1.357       .  S
C2702      C2703   1.414       .  A
C2702      F2707   1.357       .  S
C2703      C2704   1.411   1_554  A
C2704      F2705   1.358       .  S
C2709      C2710   1.414       .  A
C2709      C2714   1.406       .  A
C2709      F2716   1.358       .  S
C2710      C2711   1.409       .  A
C2711      C2712   1.389       .  A
C2711      F2718   1.358       .  S
C2712      C2713   1.409       .  A
C2712      F2717   1.359       .  S
C2713      C2714   1.407       .  A
C2714      F2715   1.357       .  S
C2719      C2720   1.412       .  A
C2719      C2724   1.391       .  A
C2719      F2726   1.358       .  S
C2720      C2721   1.412       .  A
C2721      C2722   1.407       .  A
C2721      F2728   1.357       .  S
C2722      C2723   1.405       .  A
C2722      F2727   1.357       .  S
C2723      C2724   1.401       .  A
C2724      F2725   1.359       .  S
C2729      C2730   1.405       .  A
C2729      C2734   1.407       .  A
C2729      F2736   1.357       .  S
C2730      C2731   1.406       .  A
C2731      C2732   1.389       .  A
C2731      F2738   1.358       .  S
C2732      C2733   1.410       .  A
C2732      F2737   1.358       .  S
C2733      C2734   1.416       .  A
C2734      F2735   1.357       .  S
C2739      C2740   1.413       .  A
C2739      C2744   1.407       .  A
C2739      F2746   1.357       .  S
C2740      C2741   1.413       .  A
C2741      C2742   1.390       .  A
C2741      F2748   1.358       .  S
C2742      C2743   1.403       .  A
C2742      F2747   1.359       .  S
C2743      C2744   1.405       .  A
C2744      F2745   1.357       .  S
C2749      C2750   1.406   1_565  A
C2749      C2754   1.395       .  A
C2749      F2756   1.359       .  S
C2750      C2751   1.406       .  A
C2751      C2752   1.403       .  A
C2751      F2758   1.358       .  S
C2752      C2753   1.412       .  A
C2752      F2757   1.357       .  S
C2753      C2754   1.411   1_545  A
C2754      F2755   1.358       .  S
C2759      C2760   1.402   1_545  A
C2759      C2764   1.397       .  A
C2759      F2766   1.358       .  S
C2760      C2761   1.407       .  A
C2761      C2762   1.402       .  A
C2761      F2768   1.358       .  S
C2762      C2763   1.402       .  A
C2762      F2767   1.357       .  S
C2763      C2764   1.405   1_565  A
C2764      F2765   1.358       .  S
C2769      C2770   1.408   1_545  A
C2769      C2774   1.387       .  A
C2769      F2776   1.359       .  S
C2770      C2771   1.414       .  A
C2771      C2772   1.407       .  A
C2771      F2778   1.357       .  S
C2772      C2773   1.407       .  A
C2772      F2777   1.357       .  S
C2773      C2774   1.408   1_565  A
C2774      F2775   1.357       .  S
C2779      C2780   1.397       .  A
C2779      C2784   1.397       .  A
C2779      F2786   1.358       .  S
C2780      C2781   1.405       .  A
C2781      C2782   1.400       .  A
C2781      F2788   1.358       .  S
C2782      C2783   1.407       .  A
C2782      F2787   1.357       .  S
C2783      C2784   1.415       .  A
C2784      F2785   1.358       .  S
C2789      C2790   1.405       .  A
C2789      C2794   1.395       .  A
C2789      F2796   1.358       .  S
C2790      C2791   1.403       .  A
C2791      C2792   1.402       .  A
C2791      F2798   1.357       .  S
C2792      C2793   1.408       .  A
C2792      F2797   1.358       .  S
C2793      C2794   1.402       .  A
C2794      F2795   1.358       .  S
C2799      C2800   1.413       .  A
C2799      C2804   1.402       .  A
C2799      F2806   1.358       .  S
C2800      C2801   1.406       .  A
C2801      C2802   1.398       .  A
C2801      F2808   1.358       .  S
C2802      C2803   1.404       .  A
C2802      F2807   1.358       .  S
C2803      C2804   1.400       .  A
C2804      F2805   1.357       .  S
C2809      C2810   1.408       .  A
C2809      C2814   1.395       .  A
C2809      F2816   1.359       .  S
C2810      C2811   1.406       .  A
C2811      C2812   1.402       .  A
C2811      F2818   1.358       .  S
C2812      C2813   1.413       .  A
C2812      F2817   1.358       .  S
C2813      C2814   1.410       .  A
C2814      F2815   1.358       .  S
C2819      C2820   1.402       .  A
C2819      C2824   1.398       .  A
C2819      F2826   1.358       .  S
C2820      C2821   1.408       .  A
C2821      C2822   1.400       .  A
C2821      F2828   1.358       .  S
C2822      C2823   1.400       .  A
C2822      F2827   1.357       .  S
C2823      C2824   1.405       .  A
C2824      F2825   1.358       .  S
C2829      C2830   1.403       .  A
C2829      C2834   1.395       .  A
C2829      F2836   1.358       .  S
C2830      C2831   1.405       .  A
C2831      C2832   1.404       .  A
C2831      F2838   1.358       .  S
C2832      C2833   1.409       .  A
C2832      F2837   1.358       .  S
C2833      C2834   1.410       .  A
C2834      F2835   1.358       .  S
C2839      C2840   1.408       .  A
C2839      C2844   1.395       .  A
C2839      F2846   1.359       .  S
C2840      C2841   1.406       .  A
C2841      C2842   1.403       .  A
C2841      F2848   1.358       .  S
C2842      C2843   1.413       .  A
C2842      F2847   1.357       .  S
C2843      C2844   1.411       .  A
C2844      F2845   1.358       .  S
C2849      C2850   1.405       .  A
C2849      C2854   1.402       .  A
C2849      F2856   1.358       .  S
C2850      C2851   1.402       .  A
C2851      C2852   1.396       .  A
C2851      F2858   1.358       .  S
C2852      C2853   1.408       .  A
C2852      F2857   1.358       .  S
C2853      C2854   1.407       .  A
C2854      F2855   1.358       .  S
C2859      C2860   1.408       .  A
C2859      C2864   1.402       .  A
C2859      F2866   1.358       .  S
C2860      C2861   1.402       .  A
C2861      C2862   1.396       .  A
C2861      F2868   1.358       .  S
C2862      C2863   1.405       .  A
C2862      F2867   1.358       .  S
C2863      C2864   1.402       .  A
C2864      F2865   1.357       .  S
C2869      C2870   1.415       .  A
C2869      C2874   1.396       .  A
C2869      F2876   1.358       .  S
C2870      C2871   1.406       .  A
C2871      C2872   1.401       .  A
C2871      F2878   1.357       .  S
C2872      C2873   1.406       .  A
C2872      F2877   1.358       .  S
C2873      C2874   1.396       .  A
C2874      F2875   1.358       .  S
C2879      C2880   1.406       .  A
C2879      C2884   1.399       .  A
C2879      F2886   1.358       .  S
C2880      C2881   1.396       .  A
C2881      C2882   1.396       .  A
C2881      F2888   1.358       .  S
C2882      C2883   1.417       .  A
C2882      F2887   1.357       .  S
C2883      C2884   1.407       .  A
C2884      F2885   1.357       .  S
C2889      C2890   1.405       .  A
C2889      C2894   1.394       .  A
C2889      F2896   1.359       .  S
C2890      C2891   1.406       .  A
C2891      C2892   1.404       .  A
C2891      F2898   1.358       .  S
C2892      C2893   1.411       .  A
C2892      F2897   1.357   1_655  S
C2893      C2894   1.411       .  A
C2894      F2895   1.358       .  S
C2899      C2900   1.401       .  A
C2899      C2904   1.394       .  A
C2899      F2906   1.358       .  S
C2900      C2901   1.406       .  A
C2901      C2902   1.404       .  A
C2901      F2908   1.357       .  S
C2902      C2903   1.406       .  A
C2902      F2907   1.357       .  S
C2903      C2904   1.407       .  A
C2904      F2905   1.359       .  S
C2909      C2910   1.400       .  A
C2909      C2914   1.395       .  A
C2909      F2916   1.358       .  S
C2910      C2911   1.405       .  A
C2911      C2912   1.401       .  A
C2911      F2918   1.358       .  S
C2912      C2913   1.404       .  A
C2912      F2917   1.357       .  S
C2913      C2914   1.408       .  A
C2914      F2915   1.358       .  S
C2919      C2920   1.412       .  A
C2919      C2924   1.403       .  A
C2919      F2926   1.358       .  S
C2920      C2921   1.410       .  A
C2921      C2922   1.395       .  A
C2921      F2928   1.358       .  S
C2922      C2923   1.407       .  A
C2922      F2927   1.359       .  S
C2923      C2924   1.406       .  A
C2924      F2925   1.358       .  S
C2929      C2930   1.408       .  A
C2929      C2934   1.403       .  A
C2929      F2936   1.358       .  S
C2930      C2931   1.408       .  A
C2931      C2932   1.395       .  A
C2931      F2938   1.358       .  S
C2932      C2933   1.402       .  A
C2932      F2937   1.358       .  S
C2933      C2934   1.405       .  A
C2934      F2935   1.358       .  S
C2939      C2940   1.399   1_455  A
C2939      C2944   1.400       .  A
C2939      F2946   1.358       .  S
C2940      C2941   1.405       .  A
C2941      C2942   1.398       .  A
C2941      F2948   1.358       .  S
C2942      C2943   1.408       .  A
C2942      F2947   1.358       .  S
C2943      C2944   1.416   1_655  A
C2944      F2945   1.358       .  S
C2949      C2950   1.413       .  A
C2949      C2954   1.403       .  A
C2949      F2956   1.358       .  S
C2950      C2951   1.411       .  A
C2951      C2952   1.394       .  A
C2951      F2958   1.358       .  S
C2952      C2953   1.407       .  A
C2952      F2957   1.359       .  S
C2953      C2954   1.407       .  A
C2954      F2955   1.358       .  S
C2959      C2960   1.398       .  A
C2959      C2964   1.399       .  A
C2959      F2966   1.358       .  S
C2960      C2961   1.405       .  A
C2961      C2962   1.400       .  A
C2961      F2968   1.358       .  S
C2962      C2963   1.409       .  A
C2962      F2967   1.357       .  S
C2963      C2964   1.417       .  A
C2964      F2965   1.358       .  S
C2969      C2970   1.406       .  A
C2969      C2974   1.403       .  A
C2969      F2976   1.358       .  S
C2970      C2971   1.408       .  A
C2971      C2972   1.395       .  A
C2971      F2978   1.359       .  S
C2972      C2973   1.410       .  A
C2972      F2977   1.358       .  S
C2973      C2974   1.413       .  A
C2974      F2975   1.358       .  S
C2979      C2980   1.406       .  A
C2979      C2984   1.402       .  A
C2979      F2986   1.358       .  S
C2980      C2981   1.408       .  A
C2981      C2982   1.394       .  A
C2981      F2988   1.359       .  S
C2982      C2983   1.410       .  A
C2982      F2987   1.358       .  S
C2983      C2984   1.413       .  A
C2984      F2985   1.358       .  S
C2989      C2990   1.408       .  A
C2989      C2994   1.407       .  A
C2989      F2996   1.357       .  S
C2990      C2991   1.408   1_545  A
C2991      C2992   1.390       .  A
C2991      F2998   1.359       .  S
C2992      C2993   1.411   1_565  A
C2992      F2997   1.358       .  S
C2993      C2994   1.413       .  A
C2994      F2995   1.357       .  S
C2999      C3000   1.404       .  A
C2999      C3004   1.406       .  A
C2999      F3006   1.357       .  S
C3000      C3001   1.402       .  A
C3001      C3002   1.390       .  A
C3001      F3008   1.359       .  S
C3002      C3003   1.411       .  A
C3002      F3007   1.358       .  S
C3003      C3004   1.413       .  A
C3004      F3005   1.358       .  S
C3009      C3010   1.407       .  A
C3009      C3014   1.398       .  A
C3009      F3016   1.358       .  S
C3010      C3011   1.413       .  A
C3011      C3012   1.401       .  A
C3011      F3018   1.358       .  S
C3012      C3013   1.400       .  A
C3012      F3017   1.358       .  S
C3013      C3014   1.404       .  A
C3014      F3015   1.358       .  S
C3019      C3020   1.406       .  A
C3019      C3024   1.398       .  A
C3019      F3026   1.358       .  S
C3020      C3021   1.413       .  A
C3021      C3022   1.402       .  A
C3021      F3028   1.358       .  S
C3022      C3023   1.400       .  A
C3022      F3027   1.357       .  S
C3023      C3024   1.404       .  A
C3024      F3025   1.358       .  S
C3029      C3030   1.414       .  A
C3029      C3034   1.399       .  A
C3029      F3036   1.358       .  S
C3030      C3031   1.406       .  A
C3031      C3032   1.398       .  A
C3031      F3038   1.358       .  S
C3032      C3033   1.404       .  A
C3032      F3037   1.358       .  S
C3033      C3034   1.398       .  A
C3034      F3035   1.358       .  S
C3039      C3040   1.411       .  A
C3039      C3044   1.392       .  A
C3039      F3046   1.358       .  S
C3040      C3041   1.409       .  A
C3041      C3042   1.404       .  A
C3041      F3048   1.357       .  S
C3042      C3043   1.405       .  A
C3042      F3047   1.357       .  S
C3043      C3044   1.400       .  A
C3044      F3045   1.358       .  S
C3049      C3050   1.400       .  A
C3049      C3054   1.399       .  A
C3049      F3056   1.358       .  S
C3050      C3051   1.406       .  A
C3051      C3052   1.397       .  A
C3051      F3058   1.358       .  S
C3052      C3053   1.402       .  A
C3052      F3057   1.358       .  S
C3053      C3054   1.410       .  A
C3054      F3055   1.358       .  S
C3059      C3060   1.408       .  A
C3059      C3064   1.398       .  A
C3059      F3066   1.358       .  S
C3060      C3061   1.415       .  A
C3061      C3062   1.399       .  A
C3061      F3068   1.358       .  S
C3062      C3063   1.398       .  A
C3062      F3067   1.358       .  S
C3063      C3064   1.404       .  A
C3064      F3065   1.358       .  S
C3069      C3070   1.408       .  A
C3069      C3074   1.395       .  A
C3069      F3076   1.359       .  S
C3070      C3071   1.405       .  A
C3071      C3072   1.404       .  A
C3071      F3078   1.357       .  S
C3072      C3073   1.414       .  A
C3072      F3077   1.357       .  S
C3073      C3074   1.410       .  A
C3074      F3075   1.358       .  S
C3079      C3080   1.406       .  A
C3079      C3084   1.402       .  A
C3079      F3086   1.358       .  S
C3080      C3081   1.407       .  A
C3081      C3082   1.392       .  A
C3081      F3088   1.359       .  S
C3082      C3083   1.411       .  A
C3082      F3087   1.358       .  S
C3083      C3084   1.412       .  A
C3084      F3085   1.358       .  S
C3089      C3090   1.406       .  A
C3089      C3094   1.404       .  A
C3089      F3096   1.358       .  S
C3090      C3091   1.404       .  A
C3091      C3092   1.395       .  A
C3091      F3098   1.359       .  S
C3092      C3093   1.411       .  A
C3092      F3097   1.358       .  S
C3093      C3094   1.411       .  A
C3094      F3095   1.357       .  S
C3099      C3100   1.412       .  A
C3099      C3104   1.402       .  A
C3099      F3106   1.358       .  S
C3100      C3101   1.411       .  A
C3101      C3102   1.395       .  A
C3101      F3108   1.358       .  S
C3102      C3103   1.407       .  A
C3102      F3107   1.359       .  S
C3103      C3104   1.405       .  A
C3104      F3105   1.358       .  S
C3109      C3110   1.408       .  A
C3109      C3114   1.393       .  A
C3109      F3116   1.358       .  S
C3110      C3111   1.407       .  A
C3111      C3112   1.404       .  A
C3111      F3118   1.357       .  S
C3112      C3113   1.413       .  A
C3112      F3117   1.357       .  S
C3113      C3114   1.410       .  A
C3114      F3115   1.358       .  S
C3119      C3120   1.409   1_455  A
C3119      C3124   1.393       .  A
C3119      F3126   1.358       .  S
C3120      C3121   1.414       .  A
C3121      C3122   1.404       .  A
C3121      F3128   1.358       .  S
C3122      C3123   1.405       .  A
C3122      F3127   1.357       .  S
C3123      C3124   1.409   1_655  A
C3124      F3125   1.358       .  S
C3129      C3130   1.408       .  A
C3129      C3134   1.403       .  A
C3129      F3136   1.357       .  S
C3130      C3131   1.409       .  A
C3131      C3132   1.394       .  A
C3131      F3138   1.358       .  S
C3132      C3133   1.401       .  A
C3132      F3137   1.358       .  S
C3133      C3134   1.405       .  A
C3134      F3135   1.358       .  S
C3139      C3140   1.396       .  A
C3139      C3144   1.396       .  A
C3139      F3146   1.358       .  S
C3140      C3141   1.406       .  A
C3141      C3142   1.400       .  A
C3141      F3148   1.358       .  S
C3142      C3143   1.406       .  A
C3142      F3147   1.357       .  S
C3143      C3144   1.415       .  A
C3144      F3145   1.357       .  S
C3149      C3150   1.405       .  A
C3149      C3154   1.403       .  A
C3149      F3156   1.358       .  S
C3150      C3151   1.403       .  A
C3151      C3152   1.396       .  A
C3151      F3158   1.358       .  S
C3152      C3153   1.409       .  A
C3152      F3157   1.358       .  S
C3153      C3154   1.408       .  A
C3154      F3155   1.357       .  S
C3159      C3160   1.407       .  A
C3159      C3164   1.403       .  A
C3159      F3166   1.358       .  S
C3160      C3161   1.410       .  A
C3161      C3162   1.397       .  A
C3161      F3168   1.358       .  S
C3162      C3163   1.410       .  A
C3162      F3167   1.358       .  S
C3163      C3164   1.414       .  A
C3164      F3165   1.358       .  S
C3169      C3170   1.410       .  A
C3169      C3174   1.393       .  A
C3169      F3176   1.359       .  S
C3170      C3171   1.406       .  A
C3171      C3172   1.403       .  A
C3171      F3178   1.357       .  S
C3172      C3173   1.406       .  A
C3172      F3177   1.358       .  S
C3173      C3174   1.399       .  A
C3174      F3175   1.358       .  S
C3179      C3180   1.415       .  A
C3179      C3184   1.407       .  A
C3179      F3186   1.357       .  S
C3180      C3181   1.411       .  A
C3181      C3182   1.391       .  A
C3181      F3188   1.358       .  S
C3182      C3183   1.407       .  A
C3182      F3187   1.359       .  S
C3183      C3184   1.406       .  A
C3184      F3185   1.357       .  S
C3189      C3190   1.416       .  A
C3189      C3194   1.399       .  A
C3189      F3196   1.357       .  S
C3190      C3191   1.408       .  A
C3191      C3192   1.399       .  A
C3191      F3198   1.358       .  S
C3192      C3193   1.405       .  A
C3192      F3197   1.358       .  S
C3193      C3194   1.398       .  A
C3194      F3195   1.358       .  S
C3199      C3200   1.411       .  A
C3199      C3204   1.394       .  A
C3199      F3206   1.358       .  S
C3200      C3201   1.412       .  A
C3201      C3202   1.401       .  A
C3201      F3208   1.358       .  S
C3202      C3203   1.405       .  A
C3202      F3207   1.358       .  S
C3203      C3204   1.406       .  A
C3204      F3205   1.359       .  S
C3209      C3210   1.410       .  A
C3209      C3214   1.402       .  A
C3209      F3216   1.358       .  S
C3210      C3211   1.411       .  A
C3211      C3212   1.393       .  A
C3211      F3218   1.358       .  S
C3212      C3213   1.404       .  A
C3212      F3217   1.359       .  S
C3213      C3214   1.405       .  A
C3214      F3215   1.358       .  S
C3219      C3220   1.408       .  A
C3219      C3224   1.398       .  A
C3219      F3226   1.358       .  S
C3220      C3221   1.416       .  A
C3221      C3222   1.400       .  A
C3221      F3228   1.358       .  S
C3222      C3223   1.399       .  A
C3222      F3227   1.358       .  S
C3223      C3224   1.405       .  A
C3224      F3225   1.358       .  S
C3229      C3230   1.410       .  A
C3229      C3234   1.401       .  A
C3229      F3236   1.358       .  S
C3230      C3231   1.404       .  A
C3231      C3232   1.396       .  A
C3231      F3238   1.358       .  S
C3232      C3233   1.403       .  A
C3232      F3237   1.358       .  S
C3233      C3234   1.401       .  A
C3234      F3235   1.357       .  S
C3239      C3240   1.406       .  A
C3239      C3244   1.398       .  A
C3239      F3246   1.357       .  S
C3240      C3241   1.414       .  A
C3241      C3242   1.397       .  A
C3241      F3248   1.358       .  S
C3242      C3243   1.397       .  A
C3242      F3247   1.358       .  S
C3243      C3244   1.404       .  A
C3244      F3245   1.358       .  S
C3249      C3250   1.404       .  A
C3249      C3254   1.398       .  A
C3249      F3256   1.358       .  S
C3250      C3251   1.412       .  A
C3251      C3252   1.399       .  A
C3251      F3258   1.358       .  S
C3252      C3253   1.399       .  A
C3252      F3257   1.357       .  S
C3253      C3254   1.405       .  A
C3254      F3255   1.358       .  S
C3259      C3260   1.407       .  A
C3259      C3264   1.404       .  A
C3259      F3266   1.357       .  S
C3260      C3261   1.400       .  A
C3261      C3262   1.394       .  A
C3261      F3268   1.358       .  S
C3262      C3263   1.409       .  A
C3262      F3267   1.359       .  S
C3263      C3264   1.405       .  A
C3264      F3265   1.357       .  S
C3269      C3270   1.407       .  A
C3269      C3274   1.395       .  A
C3269      F3276   1.359       .  S
C3270      C3271   1.406       .  A
C3271      C3272   1.403       .  A
C3271      F3278   1.358       .  S
C3272      C3273   1.412       .  A
C3272      F3277   1.357       .  S
C3273      C3274   1.411       .  A
C3274      F3275   1.358       .  S
C3279      C3280   1.409       .  A
C3279      C3284   1.393       .  A
C3279      F3286   1.359       .  S
C3280      C3281   1.405       .  A
C3281      C3282   1.404       .  A
C3281      F3288   1.357       .  S
C3282      C3283   1.414       .  A
C3282      F3287   1.357       .  S
C3283      C3284   1.409       .  A
C3284      F3285   1.358       .  S
C3289      C3290   1.399       .  A
C3289      C3294   1.398       .  A
C3289      F3296   1.358       .  S
C3290      C3291   1.407       .  A
C3291      C3292   1.398       .  A
C3291      F3298   1.358       .  S
C3292      C3293   1.401       .  A
C3292      F3297   1.358       .  S
C3293      C3294   1.409       .  A
C3294      F3295   1.358       .  S
C3299      C3300   1.410       .  A
C3299      C3304   1.388       .  A
C3299      F3306   1.358       .  S
C3300      C3301   1.415       .  A
C3301      C3302   1.407       .  A
C3301      F3308   1.357       .  S
C3302      C3303   1.406       .  A
C3302      F3307   1.357       .  S
C3303      C3304   1.407       .  A
C3304      F3305   1.358       .  S
C3309      C3310   1.401       .  A
C3309      C3314   1.401       .  A
C3309      F3316   1.357       .  S
C3310      C3311   1.404       .  A
C3311      C3312   1.395       .  A
C3311      F3318   1.358       .  S
C3312      C3313   1.403       .  A
C3312      F3317   1.358       .  S
C3313      C3314   1.410       .  A
C3314      F3315   1.358       .  S
C3319      C3320   1.406       .  A
C3319      C3324   1.404       .  A
C3319      F3326   1.357   1_554  S
C3320      C3321   1.399       .  A
C3321      C3322   1.392       .  A
C3321      F3328   1.358       .  S
C3322      C3323   1.408       .  A
C3322      F3327   1.359       .  S
C3323      C3324   1.406       .  A
C3324      F3325   1.357       .  S
C3329      C3330   1.411       .  A
C3329      C3334   1.401       .  A
C3329      F3336   1.358       .  S
C3330      C3331   1.404       .  A
C3331      C3332   1.397       .  A
C3331      F3338   1.358       .  S
C3332      C3333   1.405       .  A
C3332      F3337   1.358       .  S
C3333      C3334   1.400       .  A
C3334      F3335   1.357       .  S
C3339      C3340   1.406       .  A
C3339      C3344   1.397       .  A
C3339      F3346   1.358       .  S
C3340      C3341   1.413       .  A
C3341      C3342   1.400       .  A
C3341      F3348   1.358       .  S
C3342      C3343   1.399       .  A
C3342      F3347   1.357       .  S
C3343      C3344   1.404       .  A
C3344      F3345   1.358       .  S
C3349      C3350   1.413       .  A
C3349      C3354   1.406       .  A
C3349      F3356   1.357   1_655  S
C3350      C3351   1.412       .  A
C3351      C3352   1.391       .  A
C3351      F3358   1.358       .  S
C3352      C3353   1.404       .  A
C3352      F3357   1.359       .  S
C3353      C3354   1.405       .  A
C3354      F3355   1.357       .  S
C3359      C3360   1.410       .  A
C3359      C3364   1.387       .  A
C3359      F3366   1.358       .  S
C3360      C3361   1.415       .  A
C3361      C3362   1.407       .  A
C3361      F3368   1.357       .  S
C3362      C3363   1.405       .  A
C3362      F3367   1.357       .  S
C3363      C3364   1.406       .  A
C3364      F3365   1.358       .  S
C3369      C3370   1.411       .  A
C3369      C3374   1.390       .  A
C3369      F3376   1.358       .  S
C3370      C3371   1.413       .  A
C3371      C3372   1.406       .  A
C3371      F3378   1.357       .  S
C3372      C3373   1.404       .  A
C3372      F3377   1.357       .  S
C3373      C3374   1.402       .  A
C3374      F3375   1.359       .  S
C3379      C3380   1.407       .  A
C3379      C3384   1.390       .  A
C3379      F3386   1.359       .  S
C3380      C3381   1.406       .  A
C3381      C3382   1.406       .  A
C3381      F3388   1.357       .  S
C3382      C3383   1.414       .  A
C3382      F3387   1.358       .  S
C3383      C3384   1.411       .  A
C3384      F3385   1.358       .  S
C3389      C3390   1.405       .  A
C3389      C3394   1.398       .  A
C3389      F3396   1.358       .  S
C3390      C3391   1.400   1_655  A
C3391      C3392   1.401       .  A
C3391      F3398   1.358       .  S
C3392      C3393   1.415   1_455  A
C3392      F3397   1.358       .  S
C3393      C3394   1.407       .  A
C3394      F3395   1.358       .  S
C3399      C3400   1.406       .  A
C3399      C3404   1.402       .  A
C3399      F3406   1.357       .  S
C3400      C3401   1.402       .  A
C3401      C3402   1.396       .  A
C3401      F3408   1.358       .  S
C3402      C3403   1.405       .  A
C3402      F3407   1.358       .  S
C3403      C3404   1.403       .  A
C3404      F3405   1.357       .  S
C3409      C3410   1.410       .  A
C3409      C3414   1.405       .  A
C3409      F3416   1.358   1_655  S
C3410      C3411   1.409       .  A
C3411      C3412   1.392       .  A
C3411      F3418   1.358       .  S
C3412      C3413   1.401       .  A
C3412      F3417   1.359       .  S
C3413      C3414   1.404       .  A
C3414      F3415   1.357   1_655  S
C3419      C3420   1.405       .  A
C3419      C3424   1.405       .  A
C3419      F3426   1.357       .  S
C3420      C3421   1.404   1_554  A
C3421      C3422   1.390       .  A
C3421      F3428   1.359       .  S
C3422      C3423   1.412   1_556  A
C3422      F3427   1.358       .  S
C3423      C3424   1.413       .  A
C3424      F3425   1.357       .  S
C3429      C3430   1.411   1_455  A
C3429      C3434   1.389       .  A
C3429      F3436   1.358       .  S
C3430      C3431   1.415       .  A
C3431      C3432   1.408       .  A
C3431      F3438   1.357       .  S
C3432      C3433   1.405       .  A
C3432      F3437   1.357       .  S
C3433      C3434   1.405   1_655  A
C3434      F3435   1.359       .  S
C3439      C3440   1.413       .  A
C3439      C3444   1.390       .  A
C3439      F3446   1.358       .  S
C3440      C3441   1.413       .  A
C3441      C3442   1.405       .  A
C3441      F3448   1.357       .  S
C3442      C3443   1.405       .  A
C3442      F3447   1.357       .  S
C3443      C3444   1.403       .  A
C3444      F3445   1.359       .  S
C3449      C3450   1.406       .  A
C3449      C3454   1.397       .  A
C3449      F3456   1.358       .  S
C3450      C3451   1.402   1_554  A
C3451      C3452   1.402       .  A
C3451      F3458   1.357       .  S
C3452      C3453   1.409   1_556  A
C3452      F3457   1.358       .  S
C3453      C3454   1.402       .  A
C3454      F3455   1.358       .  S
C3459      C3460   1.415       .  A
C3459      C3464   1.407       .  A
C3459      F3466   1.357       .  S
C3460      C3461   1.412   1_565  A
C3461      C3462   1.391       .  A
C3461      F3468   1.358       .  S
C3462      C3463   1.406   1_545  A
C3462      F3467   1.359       .  S
C3463      C3464   1.406       .  A
C3464      F3465   1.357       .  S
C3469      C3470   1.405       .  A
C3469      C3474   1.398       .  A
C3469      F3476   1.358       .  S
C3470      C3471   1.413       .  A
C3471      C3472   1.398       .  A
C3471      F3478   1.358       .  S
C3472      C3473   1.397       .  A
C3472      F3477   1.358       .  S
C3473      C3474   1.405       .  A
C3474      F3475   1.358       .  S
C3479      C3480   1.410   1_556  A
C3479      C3484   1.389       .  A
C3479      F3486   1.358       .  S
C3480      C3481   1.416       .  A
C3481      C3482   1.408       .  A
C3481      F3488   1.357       .  S
C3482      C3483   1.405       .  A
C3482      F3487   1.357       .  S
C3483      C3484   1.406   1_554  A
C3484      F3485   1.358       .  S
C3489      C3490   1.406       .  A
C3489      C3494   1.399       .  A
C3489      F3496   1.358       .  S
C3490      C3491   1.414       .  A
C3491      C3492   1.399       .  A
C3491      F3498   1.358       .  S
C3492      C3493   1.398       .  A
C3492      F3497   1.358       .  S
C3493      C3494   1.405       .  A
C3494      F3495   1.358       .  S
C3499      C3500   1.405       .  A
C3499      C3504   1.404       .  A
C3499      F3506   1.358       .  S
C3500      C3501   1.404       .  A
C3501      C3502   1.392       .  A
C3501      F3508   1.359       .  S
C3502      C3503   1.410       .  A
C3502      F3507   1.358       .  S
C3503      C3504   1.411       .  A
C3504      F3505   1.357       .  S
C3509      C3510   1.405       .  A
C3509      C3514   1.398       .  A
C3509      F3516   1.358       .  S
C3510      C3511   1.399       .  A
C3511      C3512   1.401       .  A
C3511      F3518   1.358       .  S
C3512      C3513   1.416       .  A
C3512      F3517   1.358       .  S
C3513      C3514   1.407       .  A
C3514      F3515   1.358       .  S
C3519      C3520   1.396   1_455  A
C3519      C3524   1.397       .  A
C3519      F3526   1.358       .  S
C3520      C3521   1.405       .  A
C3521      C3522   1.399       .  A
C3521      F3528   1.358       .  S
C3522      C3523   1.407       .  A
C3522      F3527   1.357       .  S
C3523      C3524   1.417   1_655  A
C3524      F3525   1.357       .  S
C3529      C3530   1.404       .  A
C3529      C3534   1.398       .  A
C3529      F3536   1.358       .  S
C3530      C3531   1.410       .  A
C3531      C3532   1.402       .  A
C3531      F3538   1.358       .  S
C3532      C3533   1.401       .  A
C3532      F3537   1.357   1_655  S
C3533      C3534   1.405       .  A
C3534      F3535   1.358       .  S
C3539      C3540   1.414       .  A
C3539      C3544   1.403       .  A
C3539      F3546   1.358       .  S
C3540      C3541   1.409       .  A
C3541      C3542   1.394       .  A
C3541      F3548   1.358       .  S
C3542      C3543   1.411       .  A
C3542      F3547   1.358       .  S
C3543      C3544   1.407       .  A
C3544      F3545   1.357       .  S
C3549      C3550   1.404       .  A
C3549      C3554   1.409       .  A
C3549      F3556   1.357       .  S
C3550      C3551   1.406   1_645  A
C3551      C3552   1.390       .  A
C3551      F3558   1.358       .  S
C3552      C3553   1.410   1_465  A
C3552      F3557   1.358       .  S
C3553      C3554   1.417       .  A
C3554      F3555   1.357       .  S
C3559      C3560   1.404       .  A
C3559      C3564   1.398       .  A
C3559      F3566   1.358       .  S
C3560      C3561   1.399       .  A
C3561      C3562   1.401       .  A
C3561      F3568   1.357       .  S
C3562      C3563   1.414       .  A
C3562      F3567   1.358       .  S
C3563      C3564   1.407       .  A
C3564      F3565   1.358       .  S
C3569      C3570   1.405       .  A
C3569      C3574   1.399       .  A
C3569      F3576   1.358   1_545  S
C3570      C3571   1.397       .  A
C3571      C3572   1.398       .  A
C3571      F3578   1.358       .  S
C3572      C3573   1.415       .  A
C3572      F3577   1.357       .  S
C3573      C3574   1.407       .  A
C3574      F3575   1.358       .  S
C3579      C3580   1.409   1_565  A
C3579      C3584   1.395   1_565  A
C3579      F3586   1.358       .  S
C3580      C3581   1.406       .  A
C3581      C3582   1.404       .  A
C3581      F3588   1.358       .  S
C3582      C3583   1.414       .  A
C3582      F3587   1.358       .  S
C3583      C3584   1.410       .  A
C3584      F3585   1.358   1_545  S
C3589      C3590   1.407       .  A
C3589      C3594   1.399       .  A
C3589      F3596   1.358       .  S
C3590      C3591   1.415       .  A
C3591      C3592   1.400       .  A
C3591      F3598   1.358       .  S
C3592      C3593   1.399       .  A
C3592      F3597   1.358       .  S
C3593      C3594   1.405       .  A
C3594      F3595   1.358   1_565  S
C3599      C3600   1.406       .  A
C3599      C3604   1.405       .  A
C3599      F3606   1.357       .  S
C3600      C3601   1.406       .  A
C3601      C3602   1.389       .  A
C3601      F3608   1.359       .  S
C3602      C3603   1.410       .  A
C3602      F3607   1.358       .  S
C3603      C3604   1.414       .  A
C3604      F3605   1.358       .  S
C3609      C3610   1.405       .  A
C3609      C3614   1.397       .  A
C3609      F3616   1.358       .  S
C3610      C3611   1.398       .  A
C3611      C3612   1.399       .  A
C3611      F3618   1.358       .  S
C3612      C3613   1.415       .  A
C3612      F3617   1.358       .  S
C3613      C3614   1.407       .  A
C3614      F3615   1.358       .  S
C3619      C3620   1.410       .  A
C3619      C3624   1.393       .  A
C3619      F3626   1.358       .  S
C3620      C3621   1.412       .  A
C3621      C3622   1.405       .  A
C3621      F3628   1.357   1_554  S
C3622      C3623   1.405       .  A
C3622      F3627   1.357       .  S
C3623      C3624   1.405       .  A
C3624      F3625   1.359       .  S
C3629      C3630   1.406       .  A
C3629      C3634   1.393       .  A
C3629      F3636   1.359       .  S
C3630      C3631   1.405       .  A
C3631      C3632   1.403       .  A
C3631      F3638   1.358       .  S
C3632      C3633   1.412       .  A
C3632      F3637   1.358       .  S
C3633      C3634   1.410       .  A
C3634      F3635   1.358       .  S
C3639      C3640   1.414       .  A
C3639      C3644   1.404       .  A
C3639      F3646   1.357       .  S
C3640      C3641   1.410       .  A
C3641      C3642   1.393       .  A
C3641      F3648   1.358       .  S
C3642      C3643   1.409       .  A
C3642      F3647   1.359       .  S
C3643      C3644   1.406       .  A
C3644      F3645   1.357       .  S
C3649      C3650   1.399       .  A
C3649      C3654   1.401       .  A
C3649      F3656   1.358       .  S
C3650      C3651   1.404       .  A
C3651      C3652   1.398       .  A
C3651      F3658   1.358       .  S
C3652      C3653   1.408       .  A
C3652      F3657   1.358       .  S
C3653      C3654   1.416       .  A
C3654      F3655   1.358       .  S
C3659      C3660   1.405       .  A
C3659      C3664   1.398       .  A
C3659      F3666   1.358       .  S
C3660      C3661   1.411       .  A
C3661      C3662   1.402       .  A
C3661      F3668   1.358       .  S
C3662      C3663   1.401       .  A
C3662      F3667   1.357       .  S
C3663      C3664   1.405       .  A
C3664      F3665   1.358       .  S
C3669      C3670   1.396       .  A
C3669      C3674   1.395       .  A
C3669      F3676   1.358       .  S
C3670      C3671   1.406       .  A
C3671      C3672   1.399       .  A
C3671      F3678   1.358   1_545  S
C3672      C3673   1.405       .  A
C3672      F3677   1.358   1_545  S
C3673      C3674   1.414       .  A
C3674      F3675   1.356       .  S
C3679      C3680   1.407       .  A
C3679      C3684   1.399       .  A
C3679      F3686   1.358   1_565  S
C3680      C3681   1.414   1_554  A
C3681      C3682   1.398       .  A
C3681      F3688   1.358       .  S
C3682      C3683   1.398   1_556  A
C3682      F3687   1.358       .  S
C3683      C3684   1.405       .  A
C3684      F3685   1.358   1_565  S
C3689      C3690   1.415       .  A
C3689      C3694   1.400       .  A
C3689      F3696   1.358       .  S
C3690      C3691   1.408       .  A
C3691      C3692   1.400       .  A
C3691      F3698   1.357   1_545  S
C3692      C3693   1.404       .  A
C3692      F3697   1.358   1_545  S
C3693      C3694   1.398       .  A
C3694      F3695   1.358       .  S
C3699      C3700   1.410       .  A
C3699      C3704   1.392       .  A
C3699      F3706   1.358       .  S
C3700      C3701   1.408       .  A
C3701      C3702   1.404       .  A
C3701      F3708   1.357       .  S
C3702      C3703   1.405       .  A
C3702      F3707   1.358       .  S
C3703      C3704   1.400       .  A
C3704      F3705   1.358       .  S
C3709      C3710   1.412       .  A
C3709      C3714   1.390       .  A
C3709      F3716   1.358       .  S
C3710      C3711   1.411       .  A
C3711      C3712   1.405       .  A
C3711      F3718   1.357       .  S
C3712      C3713   1.405       .  A
C3712      F3717   1.357       .  S
C3713      C3714   1.401       .  A
C3714      F3715   1.359       .  S
C3719      C3720   1.397       .  A
C3719      C3724   1.399       .  A
C3719      F3726   1.358       .  S
C3720      C3721   1.405       .  A
C3721      C3722   1.399       .  A
C3721      F3728   1.358       .  S
C3722      C3723   1.406       .  A
C3722      F3727   1.358       .  S
C3723      C3724   1.415       .  A
C3724      F3725   1.358       .  S
C3729      C3730   1.404       .  A
C3729      C3734   1.391       .  A
C3729      F3736   1.359       .  S
C3730      C3731   1.406       .  A
C3731      C3732   1.407       .  A
C3731      F3738   1.357       .  S
C3732      C3733   1.413       .  A
C3732      F3737   1.357       .  S
C3733      C3734   1.413       .  A
C3734      F3735   1.358       .  S
C3739      C3740   1.408       .  A
C3739      C3744   1.394       .  A
C3739      F3746   1.359       .  S
C3740      C3741   1.407       .  A
C3741      C3742   1.403       .  A
C3741      F3748   1.358       .  S
C3742      C3743   1.413       .  A
C3742      F3747   1.357       .  S
C3743      C3744   1.411       .  A
C3744      F3745   1.358       .  S
C3749      C3750   1.404       .  A
C3749      C3754   1.394       .  A
C3749      F3756   1.359       .  S
C3750      C3751   1.405       .  A
C3751      C3752   1.403       .  A
C3751      F3758   1.358       .  S
C3752      C3753   1.410       .  A
C3752      F3757   1.357       .  S
C3753      C3754   1.410       .  A
C3754      F3755   1.358       .  S
C3759      C3760   1.405       .  A
C3759      C3764   1.403       .  A
C3759      F3766   1.358       .  S
C3760      C3761   1.405   1_565  A
C3761      C3762   1.395       .  A
C3761      F3768   1.358       .  S
C3762      C3763   1.410   1_545  A
C3762      F3767   1.358       .  S
C3763      C3764   1.410       .  A
C3764      F3765   1.358       .  S
C3769      C3770   1.406       .  A
C3769      C3774   1.402       .  A
C3769      F3776   1.357       .  S
C3770      C3771   1.409   1_565  A
C3771      C3772   1.396       .  A
C3771      F3778   1.358       .  S
C3772      C3773   1.402   1_545  A
C3772      F3777   1.358       .  S
C3773      C3774   1.405       .  A
C3774      F3775   1.358       .  S
C3779      C3780   1.410       .  A
C3779      C3784   1.395   1_545  A
C3779      F3786   1.358   1_545  S
C3780      C3781   1.413       .  A
C3781      C3782   1.403       .  A
C3781      F3788   1.358       .  S
C3782      C3783   1.406       .  A
C3782      F3787   1.358       .  S
C3783      C3784   1.408   1_545  A
C3784      F3785   1.359       .  S
C3789      C3790   1.414       .  A
C3789      C3794   1.403       .  A
C3789      F3796   1.358       .  S
C3790      C3791   1.409       .  A
C3791      C3792   1.393       .  A
C3791      F3798   1.358       .  S
C3792      C3793   1.408       .  A
C3792      F3797   1.358       .  S
C3793      C3794   1.405       .  A
C3794      F3795   1.358       .  S
C3799      C3800   1.406       .  A
C3799      C3804   1.403       .  A
C3799      F3806   1.358       .  S
C3800      C3801   1.406       .  A
C3801      C3802   1.394       .  A
C3801      F3808   1.359       .  S
C3802      C3803   1.411       .  A
C3802      F3807   1.358       .  S
C3803      C3804   1.412       .  A
C3804      F3805   1.357   1_655  S
C3809      C3810   1.400       .  A
C3809      C3814   1.402       .  A
C3809      F3816   1.357       .  S
C3810      C3811   1.405       .  A
C3811      C3812   1.399       .  A
C3811      F3818   1.358       .  S
C3812      C3813   1.407       .  A
C3812      F3817   1.358       .  S
C3813      C3814   1.414       .  A
C3814      F3815   1.358       .  S
C3819      C3820   1.414       .  A
C3819      C3824   1.400       .  A
C3819      F3826   1.358       .  S
C3820      C3821   1.407       .  A
C3821      C3822   1.398       .  A
C3821      F3828   1.358       .  S
C3822      C3823   1.404       .  A
C3822      F3827   1.358       .  S
C3823      C3824   1.399       .  A
C3824      F3825   1.358       .  S
C3829      C3830   1.403       .  A
C3829      C3834   1.396       .  A
C3829      F3836   1.358       .  S
C3830      C3831   1.409       .  A
C3831      C3832   1.402       .  A
C3831      F3838   1.358       .  S
C3832      C3833   1.402       .  A
C3832      F3837   1.357       .  S
C3833      C3834   1.405       .  A
C3834      F3835   1.358       .  S
C3839      C3840   1.406       .  A
C3839      C3844   1.401       .  A
C3839      F3846   1.358       .  S
C3840      C3841   1.407       .  A
C3841      C3842   1.394       .  A
C3841      F3848   1.359       .  S
C3842      C3843   1.411       .  A
C3842      F3847   1.358       .  S
C3843      C3844   1.412       .  A
C3844      F3845   1.358       .  S
C3849      C3850   1.408       .  A
C3849      C3854   1.399       .  A
C3849      F3856   1.357       .  S
C3850      C3851   1.416   1_655  A
C3851      C3852   1.399       .  A
C3851      F3858   1.358       .  S
C3852      C3853   1.398   1_455  A
C3852      F3857   1.358       .  S
C3853      C3854   1.405       .  A
C3854      F3855   1.358       .  S
C3859      C3860   1.403       .  A
C3859      C3864   1.395       .  A
C3859      F3866   1.358       .  S
C3860      C3861   1.405       .  A
C3861      C3862   1.404       .  A
C3861      F3868   1.357       .  S
C3862      C3863   1.409       .  A
C3862      F3867   1.357       .  S
C3863      C3864   1.409       .  A
C3864      F3865   1.358       .  S
C3869      C3870   1.411       .  A
C3869      C3874   1.402       .  A
C3869      F3876   1.358   1_554  S
C3870      C3871   1.410       .  A
C3871      C3872   1.394       .  A
C3871      F3878   1.358       .  S
C3872      C3873   1.405       .  A
C3872      F3877   1.359       .  S
C3873      C3874   1.405       .  A
C3874      F3875   1.358       .  S
C3879      C3880   1.411       .  A
C3879      C3884   1.395       .  A
C3879      F3886   1.358       .  S
C3880      C3881   1.412       .  A
C3881      C3882   1.404       .  A
C3881      F3888   1.358       .  S
C3882      C3883   1.405       .  A
C3882      F3887   1.358       .  S
C3883      C3884   1.406       .  A
C3884      F3885   1.359       .  S
C3889      C3890   1.398       .  A
C3889      C3894   1.399       .  A
C3889      F3896   1.358       .  S
C3890      C3891   1.404       .  A
C3891      C3892   1.399       .  A
C3891      F3898   1.358       .  S
C3892      C3893   1.407       .  A
C3892      F3897   1.357       .  S
C3893      C3894   1.415       .  A
C3894      F3895   1.358       .  S
C3899      C3900   1.403       .  A
C3899      C3904   1.398       .  A
C3899      F3906   1.358       .  S
C3900      C3901   1.411       .  A
C3901      C3902   1.399       .  A
C3901      F3908   1.358       .  S
C3902      C3903   1.399       .  A
C3902      F3907   1.358       .  S
C3903      C3904   1.406       .  A
C3904      F3905   1.358       .  S
C3909      C3910   1.413       .  A
C3909      C3914   1.390       .  A
C3909      F3916   1.358       .  S
C3910      C3911   1.412       .  A
C3911      C3912   1.406       .  A
C3911      F3918   1.357       .  S
C3912      C3913   1.405       .  A
C3912      F3917   1.357       .  S
C3913      C3914   1.402       .  A
C3914      F3915   1.359       .  S
C3919      C3920   1.406       .  A
C3919      C3924   1.403       .  A
C3919      F3926   1.358       .  S
C3920      C3921   1.406       .  A
C3921      C3922   1.395       .  A
C3921      F3928   1.359       .  S
C3922      C3923   1.410       .  A
C3922      F3927   1.358       .  S
C3923      C3924   1.412       .  A
C3924      F3925   1.358       .  S
C3929      C3930   1.409       .  A
C3929      C3934   1.402       .  A
C3929      F3936   1.358       .  S
C3930      C3931   1.402       .  A
C3931      C3932   1.398       .  A
C3931      F3938   1.358       .  S
C3932      C3933   1.407       .  A
C3932      F3937   1.358       .  S
C3933      C3934   1.402       .  A
C3934      F3935   1.357       .  S
C3939      C3940   1.402       .  A
C3939      C3944   1.396       .  A
C3939      F3946   1.358       .  S
C3940      C3941   1.406       .  A
C3941      C3942   1.403       .  A
C3941      F3948   1.357       .  S
C3942      C3943   1.405       .  A
C3942      F3947   1.357       .  S
C3943      C3944   1.406       .  A
C3944      F3945   1.358       .  S
C3949      C3950   1.416       .  A
C3949      C3954   1.401       .  A
C3949      F3956   1.358       .  S
C3950      C3951   1.409       .  A
C3951      C3952   1.398       .  A
C3951      F3958   1.358       .  S
C3952      C3953   1.404       .  A
C3952      F3957   1.358       .  S
C3953      C3954   1.399       .  A
C3954      F3955   1.358       .  S
C3959      C3960   1.409       .  A
C3959      C3964   1.395       .  A
C3959      F3966   1.358       .  S
C3960      C3961   1.411       .  A
C3961      C3962   1.404       .  A
C3961      F3968   1.358       .  S
C3962      C3963   1.404       .  A
C3962      F3967   1.357       .  S
C3963      C3964   1.404       .  A
C3964      F3965   1.359       .  S
C3969      C3970   1.416       .  A
C3969      C3974   1.401       .  A
C3969      F3976   1.358       .  S
C3970      C3971   1.408       .  A
C3971      C3972   1.398       .  A
C3971      F3978   1.357       .  S
C3972      C3973   1.405       .  A
C3972      F3977   1.358       .  S
C3973      C3974   1.399       .  A
C3974      F3975   1.358       .  S
C3979      C3980   1.411       .  A
C3979      C3984   1.393       .  A
C3979      F3986   1.358       .  S
C3980      C3981   1.412       .  A
C3981      C3982   1.402       .  A
C3981      F3988   1.358       .  S
C3982      C3983   1.406       .  A
C3982      F3987   1.358       .  S
C3983      C3984   1.407       .  A
C3984      F3985   1.359       .  S
C3989      C3990   1.406       .  A
C3989      C3994   1.399       .  A
C3989      F3996   1.358       .  S
C3990      C3991   1.396       .  A
C3991      C3992   1.396       .  A
C3991      F3998   1.358       .  S
C3992      C3993   1.418       .  A
C3992      F3997   1.356       .  S
C3993      C3994   1.408       .  A
C3994      F3995   1.357       .  S
C3999      C4000   1.411       .  A
C3999      C4004   1.395       .  A
C3999      F4006   1.358       .  S
C4000      C4001   1.412       .  A
C4001      C4002   1.403       .  A
C4001      F4008   1.357       .  S
C4002      C4003   1.406       .  A
C4002      F4007   1.358       .  S
C4003      C4004   1.407       .  A
C4004      F4005   1.359       .  S
C4009      C4010   1.405       .  A
C4009      C4014   1.396       .  A
C4009      F4016   1.358       .  S
C4010      C4011   1.401       .  A
C4011      C4012   1.399       .  A
C4011      F4018   1.357       .  S
C4012      C4013   1.407       .  A
C4012      F4017   1.358       .  S
C4013      C4014   1.401       .  A
C4014      F4015   1.358       .  S
C4019      C4020   1.402       .  A
C4019      C4024   1.401       .  A
C4019      F4026   1.357       .  S
C4020      C4021   1.405       .  A
C4021      C4022   1.397       .  A
C4021      F4028   1.358       .  S
C4022      C4023   1.402       .  A
C4022      F4027   1.358       .  S
C4023      C4024   1.407       .  A
C4024      F4025   1.358       .  S
C4029      C4030   1.410       .  A
C4029      C4034   1.392       .  A
C4029      F4036   1.358       .  S
C4030      C4031   1.410       .  A
C4031      C4032   1.405       .  A
C4031      F4038   1.358       .  S
C4032      C4033   1.404       .  A
C4032      F4037   1.357       .  S
C4033      C4034   1.400       .  A
C4034      F4035   1.358       .  S
C4039      C4040   1.405       .  A
C4039      C4044   1.403       .  A
C4039      F4046   1.358       .  S
C4040      C4041   1.405       .  A
C4041      C4042   1.395       .  A
C4041      F4048   1.359       .  S
C4042      C4043   1.411       .  A
C4042      F4047   1.358       .  S
C4043      C4044   1.411       .  A
C4044      F4045   1.357       .  S
C4049      C4050   1.410       .  A
C4049      C4054   1.395       .  A
C4049      F4056   1.359       .  S
C4050      C4051   1.407       .  A
C4051      C4052   1.403       .  A
C4051      F4058   1.357       .  S
C4052      C4053   1.413       .  A
C4052      F4057   1.358       .  S
C4053      C4054   1.410       .  A
C4054      F4055   1.358       .  S
C4059      C4060   1.414       .  A
C4059      C4064   1.403       .  A
C4059      F4066   1.358       .  S
C4060      C4061   1.410       .  A
C4061      C4062   1.393       .  A
C4061      F4068   1.358       .  S
C4062      C4063   1.408       .  A
C4062      F4067   1.358       .  S
C4063      C4064   1.406       .  A
C4064      F4065   1.357       .  S
C4069      C4070   1.411       .  A
C4069      C4074   1.394       .  A
C4069      F4076   1.358       .  S
C4070      C4071   1.412       .  A
C4071      C4072   1.403       .  A
C4071      F4078   1.358       .  S
C4072      C4073   1.405       .  A
C4072      F4077   1.358       .  S
C4073      C4074   1.406       .  A
C4074      F4075   1.359       .  S
C4079      C4080   1.410       .  A
C4079      C4084   1.392       .  A
C4079      F4086   1.358       .  S
C4080      C4081   1.412       .  A
C4081      C4082   1.402       .  A
C4081      F4088   1.358       .  S
C4082      C4083   1.406       .  A
C4082      F4087   1.358       .  S
C4083      C4084   1.407       .  A
C4084      F4085   1.359       .  S
C4089      C4090   1.414       .  A
C4089      C4094   1.403       .  A
C4089      F4096   1.358       .  S
C4090      C4091   1.409       .  A
C4091      C4092   1.394       .  A
C4091      F4098   1.358       .  S
C4092      C4093   1.411       .  A
C4092      F4097   1.358       .  S
C4093      C4094   1.407       .  A
C4094      F4095   1.357       .  S
C4099      C4100   1.410       .  A
C4099      C4104   1.394       .  A
C4099      F4106   1.358       .  S
C4100      C4101   1.410       .  A
C4101      C4102   1.401       .  A
C4101      F4108   1.358       .  S
C4102      C4103   1.405       .  A
C4102      F4107   1.358       .  S
C4103      C4104   1.404       .  A
C4104      F4105   1.359       .  S
C4109      C4110   1.410       .  A
C4109      C4114   1.394       .  A
C4109      F4116   1.358       .  S
C4110      C4111   1.409       .  A
C4111      C4112   1.402       .  A
C4111      F4118   1.358       .  S
C4112      C4113   1.405       .  A
C4112      F4117   1.358       .  S
C4113      C4114   1.404       .  A
C4114      F4115   1.359       .  S
C4119      C4120   1.406       .  A
C4119      C4124   1.388       .  A
C4119      F4126   1.359       .  S
C4120      C4121   1.406       .  A
C4121      C4122   1.408       .  A
C4121      F4128   1.357       .  S
C4122      C4123   1.415       .  A
C4122      F4127   1.357       .  S
C4123      C4124   1.411       .  A
C4124      F4125   1.358       .  S
C4129      C4130   1.403       .  A
C4129      C4134   1.399       .  A
C4129      F4136   1.358       .  S
C4130      C4131   1.413       .  A
C4131      C4132   1.397       .  A
C4131      F4138   1.358       .  S
C4132      C4133   1.397       .  A
C4132      F4137   1.358       .  S
C4133      C4134   1.406       .  A
C4134      F4135   1.358       .  S
C4139      C4140   1.402       .  A
C4139      C4144   1.397       .  A
C4139      F4146   1.358       .  S
C4140      C4141   1.405       .  A
C4141      C4142   1.402       .  A
C4141      F4148   1.358       .  S
C4142      C4143   1.404       .  A
C4142      F4147   1.357       .  S
C4143      C4144   1.406       .  A
C4144      F4145   1.358       .  S
C4149      C4150   1.404       .  A
C4149      C4154   1.395       .  A
C4149      F4156   1.358       .  S
C4150      C4151   1.405       .  A
C4151      C4152   1.403       .  A
C4151      F4158   1.358       .  S
C4152      C4153   1.410       .  A
C4152      F4157   1.358       .  S
C4153      C4154   1.410       .  A
C4154      F4155   1.358       .  S
C4159      C4160   1.414       .  A
C4159      C4164   1.396       .  A
C4159      F4166   1.357       .  S
C4160      C4161   1.404       .  A
C4161      C4162   1.401       .  A
C4161      F4168   1.357       .  S
C4162      C4163   1.407       .  A
C4162      F4167   1.358       .  S
C4163      C4164   1.396       .  A
C4164      F4165   1.358       .  S
C4169      C4170   1.414       .  A
C4169      C4174   1.408       .  A
C4169      F4176   1.358       .  S
C4170      C4171   1.406       .  A
C4171      C4172   1.387       .  A
C4171      F4178   1.359       .  S
C4172      C4173   1.410       .  A
C4172      F4177   1.357       .  S
C4173      C4174   1.408       .  A
C4174      F4175   1.357       .  S
C4179      C4180   1.406   1_556  A
C4179      C4184   1.394       .  A
C4179      F4186   1.359       .  S
C4180      C4181   1.405       .  A
C4181      C4182   1.404       .  A
C4181      F4188   1.358       .  S
C4182      C4183   1.412       .  A
C4182      F4187   1.358       .  S
C4183      C4184   1.411   1_554  A
C4184      F4185   1.358       .  S
C4189      C4190   1.405       .  A
C4189      C4194   1.403       .  A
C4189      F4196   1.357       .  S
C4190      C4191   1.409       .  A
C4191      C4192   1.393       .  A
C4191      F4198   1.359       .  S
C4192      C4193   1.409       .  A
C4192      F4197   1.358       .  S
C4193      C4194   1.414       .  A
C4194      F4195   1.358       .  S
C4199      C4200   1.414       .  A
C4199      C4204   1.397       .  A
C4199      F4206   1.358       .  S
C4200      C4201   1.406       .  A
C4201      C4202   1.400       .  A
C4201      F4208   1.358       .  S
C4202      C4203   1.405       .  A
C4202      F4207   1.358       .  S
C4203      C4204   1.397       .  A
C4204      F4205   1.358       .  S
C4209      C4210   1.406       .  A
C4209      C4214   1.404       .  A
C4209      F4216   1.357       .  S
C4210      C4211   1.400       .  A
C4211      C4212   1.393       .  A
C4211      F4218   1.358       .  S
C4212      C4213   1.408       .  A
C4212      F4217   1.359       .  S
C4213      C4214   1.406       .  A
C4214      F4215   1.357       .  S
C4219      C4220   1.416       .  A
C4219      C4224   1.400       .  A
C4219      F4226   1.358       .  S
C4220      C4221   1.407       .  A
C4221      C4222   1.398       .  A
C4221      F4228   1.358       .  S
C4222      C4223   1.405       .  A
C4222      F4227   1.358       .  S
C4223      C4224   1.398       .  A
C4224      F4225   1.358       .  S
C4229      C4230   1.411       .  A
C4229      C4234   1.403       .  A
C4229      F4236   1.357       .  S
C4230      C4231   1.411       .  A
C4231      C4232   1.394       .  A
C4231      F4238   1.358       .  S
C4232      C4233   1.405       .  A
C4232      F4237   1.359       .  S
C4233      C4234   1.405       .  A
C4234      F4235   1.358       .  S
C4239      C4240   1.399       .  A
C4239      C4244   1.400       .  A
C4239      F4246   1.358       .  S
C4240      C4241   1.404       .  A
C4241      C4242   1.398       .  A
C4241      F4248   1.358       .  S
C4242      C4243   1.407       .  A
C4242      F4247   1.358       .  S
C4243      C4244   1.415       .  A
C4244      F4245   1.358       .  S
C4249      C4250   1.409       .  A
C4249      C4254   1.402       .  A
C4249      F4256   1.357       .  S
C4250      C4251   1.410       .  A
C4251      C4252   1.394       .  A
C4251      F4258   1.358       .  S
C4252      C4253   1.403       .  A
C4252      F4257   1.358       .  S
C4253      C4254   1.404       .  A
C4254      F4255   1.358       .  S
C4259      C4260   1.410       .  A
C4259      C4264   1.394       .  A
C4259      F4266   1.358       .  S
C4260      C4261   1.413       .  A
C4261      C4262   1.402       .  A
C4261      F4268   1.358       .  S
C4262      C4263   1.405       .  A
C4262      F4267   1.358       .  S
C4263      C4264   1.408       .  A
C4264      F4265   1.359       .  S
C4269      C4270   1.406       .  A
C4269      C4274   1.399       .  A
C4269      F4276   1.358       .  S
C4270      C4271   1.400       .  A
C4271      C4272   1.399       .  A
C4271      F4278   1.357       .  S
C4272      C4273   1.409       .  A
C4272      F4277   1.358       .  S
C4273      C4274   1.402       .  A
C4274      F4275   1.358       .  S
C4279      C4280   1.406       .  A
C4279      C4284   1.403       .  A
C4279      F4286   1.357       .  S
C4280      C4281   1.408       .  A
C4281      C4282   1.393       .  A
C4281      F4288   1.359       .  S
C4282      C4283   1.410       .  A
C4282      F4287   1.358       .  S
C4283      C4284   1.413       .  A
C4284      F4285   1.358       .  S
C4289      C4290   1.413       .  A
C4289      C4294   1.398       .  A
C4289      F4296   1.358       .  S
C4290      C4291   1.405       .  A
C4291      C4292   1.398       .  A
C4291      F4298   1.358       .  S
C4292      C4293   1.405       .  A
C4292      F4297   1.358       .  S
C4293      C4294   1.398       .  A
C4294      F4295   1.358       .  S
C4299      C4300   1.408       .  A
C4299      C4304   1.395       .  A
C4299      F4306   1.358       .  S
C4300      C4301   1.404       .  A
C4301      C4302   1.402       .  A
C4301      F4308   1.357   1_655  S
C4302      C4303   1.407       .  A
C4302      F4307   1.358   1_655  S
C4303      C4304   1.400       .  A
C4304      F4305   1.358       .  S
C4309      C4310   1.412       .  A
C4309      C4314   1.402       .  A
C4309      F4316   1.358       .  S
C4310      C4311   1.411       .  A
C4311      C4312   1.394       .  A
C4311      F4318   1.358       .  S
C4312      C4313   1.408       .  A
C4312      F4317   1.359       .  S
C4313      C4314   1.406       .  A
C4314      F4315   1.358       .  S
C4319      C4320   1.410       .  A
C4319      C4324   1.393       .  A
C4319      F4326   1.359       .  S
C4320      C4321   1.407       .  A
C4321      C4322   1.403       .  A
C4321      F4328   1.357       .  S
C4322      C4323   1.414       .  A
C4322      F4327   1.358   1_655  S
C4323      C4324   1.409       .  A
C4324      F4325   1.358       .  S
C4329      C4330   1.412       .  A
C4329      C4334   1.398       .  A
C4329      F4336   1.358       .  S
C4330      C4331   1.403       .  A
C4331      C4332   1.398       .  A
C4331      F4338   1.358       .  S
C4332      C4333   1.405       .  A
C4332      F4337   1.358       .  S
C4333      C4334   1.398       .  A
C4334      F4335   1.358       .  S
C4339      C4340   1.409       .  A
C4339      C4344   1.403       .  A
C4339      F4346   1.357       .  S
C4340      C4341   1.410       .  A
C4341      C4342   1.394       .  A
C4341      F4348   1.358       .  S
C4342      C4343   1.404       .  A
C4342      F4347   1.359       .  S
C4343      C4344   1.406       .  A
C4344      F4345   1.358       .  S
C4349      C4350   1.406       .  A
C4349      C4354   1.400       .  A
C4349      F4356   1.358       .  S
C4350      C4351   1.396       .  A
C4351      C4352   1.396       .  A
C4351      F4358   1.358       .  S
C4352      C4353   1.418       .  A
C4352      F4357   1.357       .  S
C4353      C4354   1.409       .  A
C4354      F4355   1.357   1_565  S
C4359      C4360   1.411       .  A
C4359      C4364   1.402       .  A
C4359      F4366   1.358       .  S
C4360      C4361   1.410       .  A
C4361      C4362   1.396       .  A
C4361      F4368   1.358       .  S
C4362      C4363   1.406       .  A
C4362      F4367   1.359       .  S
C4363      C4364   1.405       .  A
C4364      F4365   1.358       .  S
C4369      C4370   1.411       .  A
C4369      C4374   1.394       .  A
C4369      F4376   1.358       .  S
C4370      C4371   1.413       .  A
C4371      C4372   1.402       .  A
C4371      F4378   1.358       .  S
C4372      C4373   1.406       .  A
C4372      F4377   1.358       .  S
C4373      C4374   1.408       .  A
C4374      F4375   1.359       .  S
C4379      C4380   1.410       .  A
C4379      C4384   1.394       .  A
C4379      F4386   1.358       .  S
C4380      C4381   1.410       .  A
C4381      C4382   1.403       .  A
C4381      F4388   1.358       .  S
C4382      C4383   1.405       .  A
C4382      F4387   1.358       .  S
C4383      C4384   1.405       .  A
C4384      F4385   1.359       .  S
C4389      C4390   1.403       .  A
C4389      C4394   1.396       .  A
C4389      F4396   1.358       .  S
C4390      C4391   1.409       .  A
C4391      C4392   1.403       .  A
C4391      F4398   1.357       .  S
C4392      C4393   1.403       .  A
C4392      F4397   1.357       .  S
C4393      C4394   1.405       .  A
C4394      F4395   1.358       .  S
C4399      C4400   1.400       .  A
C4399      C4404   1.402       .  A
C4399      F4406   1.358       .  S
C4400      C4401   1.404       .  A
C4401      C4402   1.398       .  A
C4401      F4408   1.358       .  S
C4402      C4403   1.409       .  A
C4402      F4407   1.358       .  S
C4403      C4404   1.416       .  A
C4404      F4405   1.358       .  S
C4409      C4410   1.401       .  A
C4409      C4414   1.398       .  A
C4409      F4416   1.358       .  S
C4410      C4411   1.406       .  A
C4411      C4412   1.402       .  A
C4411      F4418   1.358       .  S
C4412      C4413   1.404       .  A
C4412      F4417   1.357       .  S
C4413      C4414   1.407       .  A
C4414      F4415   1.358       .  S
C4419      C4420   1.413       .  A
C4419      C4424   1.391       .  A
C4419      F4426   1.358       .  S
C4420      C4421   1.414       .  A
C4421      C4422   1.408       .  A
C4421      F4428   1.357       .  S
C4422      C4423   1.406       .  A
C4422      F4427   1.357       .  S
C4423      C4424   1.405       .  A
C4424      F4425   1.359       .  S
C4429      C4430   1.406       .  A
C4429      C4434   1.407       .  A
C4429      F4436   1.357       .  S
C4430      C4431   1.402       .  A
C4431      C4432   1.391       .  A
C4431      F4438   1.359       .  S
C4432      C4433   1.413       .  A
C4432      F4437   1.358       .  S
C4433      C4434   1.412       .  A
C4434      F4435   1.357       .  S
C4439      C4440   1.406       .  A
C4439      C4444   1.408       .  A
C4439      F4446   1.357       .  S
C4440      C4441   1.404       .  A
C4441      C4442   1.391       .  A
C4441      F4448   1.359       .  S
C4442      C4443   1.413       .  A
C4442      F4447   1.358       .  S
C4443      C4444   1.414       .  A
C4444      F4445   1.357       .  S
C4449      C4450   1.404       .  A
C4449      C4454   1.394       .  A
C4449      F4456   1.359       .  S
C4450      C4451   1.405       .  A
C4451      C4452   1.403       .  A
C4451      F4458   1.358       .  S
C4452      C4453   1.410       .  A
C4452      F4457   1.358       .  S
C4453      C4454   1.410       .  A
C4454      F4455   1.358       .  S
C4459      C4460   1.406       .  A
C4459      C4464   1.402       .  A
C4459      F4466   1.357       .  S
C4460      C4461   1.409   1_545  A
C4461      C4462   1.392   1_565  A
C4461      F4468   1.358       .  S
C4462      C4463   1.409       .  A
C4462      F4467   1.358   1_545  S
C4463      C4464   1.413       .  A
C4464      F4465   1.358       .  S
C4469      C4470   1.414       .  A
C4469      C4474   1.398       .  A
C4469      F4476   1.358       .  S
C4470      C4471   1.406       .  A
C4471      C4472   1.400       .  A
C4471      F4478   1.357   1_565  S
C4472      C4473   1.405       .  A
C4472      F4477   1.358   1_565  S
C4473      C4474   1.397       .  A
C4474      F4475   1.358       .  S
C4479      C4480   1.412       .  A
C4479      C4484   1.393       .  A
C4479      F4486   1.358       .  S
C4480      C4481   1.408       .  A
C4481      C4482   1.405       .  A
C4481      F4488   1.357       .  S
C4482      C4483   1.414       .  A
C4482      F4487   1.357       .  S
C4483      C4484   1.409       .  A
C4484      F4485   1.358       .  S
C4489      C4490   1.397       .  A
C4489      C4494   1.397       .  A
C4489      F4496   1.358       .  S
C4490      C4491   1.406       .  A
C4491      C4492   1.401       .  A
C4491      F4498   1.358       .  S
C4492      C4493   1.406       .  A
C4492      F4497   1.357       .  S
C4493      C4494   1.414       .  A
C4494      F4495   1.358       .  S
C4499      C4500   1.397       .  A
C4499      C4504   1.398       .  A
C4499      F4506   1.358       .  S
C4500      C4501   1.405       .  A
C4501      C4502   1.400       .  A
C4501      F4508   1.358       .  S
C4502      C4503   1.406       .  A
C4502      F4507   1.358       .  S
C4503      C4504   1.415       .  A
C4504      F4505   1.358       .  S
C4509      C4510   1.412       .  A
C4509      C4514   1.390       .  A
C4509      F4516   1.358       .  S
C4510      C4511   1.414       .  A
C4511      C4512   1.406       .  A
C4511      F4518   1.357       .  S
C4512      C4513   1.405       .  A
C4512      F4517   1.357       .  S
C4513      C4514   1.404       .  A
C4514      F4515   1.359       .  S
C4519      C4520   1.414       .  A
C4519      C4524   1.406       .  A
C4519      F4526   1.358       .  S
C4520      C4521   1.411       .  A
C4521      C4522   1.391       .  A
C4521      F4528   1.358       .  S
C4522      C4523   1.405       .  A
C4522      F4527   1.359       .  S
C4523      C4524   1.405       .  A
C4524      F4525   1.357       .  S
C4529      C4530   1.415       .  A
C4529      C4534   1.407       .  A
C4529      F4536   1.357       .  S
C4530      C4531   1.412       .  A
C4531      C4532   1.391       .  A
C4531      F4538   1.358       .  S
C4532      C4533   1.406       .  A
C4532      F4537   1.359       .  S
C4533      C4534   1.406       .  A
C4534      F4535   1.357       .  S
C4539      C4540   1.398       .  A
C4539      C4544   1.399       .  A
C4539      F4546   1.358       .  S
C4540      C4541   1.404       .  A
C4541      C4542   1.398       .  A
C4541      F4548   1.358       .  S
C4542      C4543   1.405       .  A
C4542      F4547   1.358       .  S
C4543      C4544   1.413       .  A
C4544      F4545   1.358       .  S
C4549      C4550   1.401       .  A
C4549      C4554   1.396       .  A
C4549      F4556   1.358       .  S
C4550      C4551   1.405       .  A
C4551      C4552   1.401       .  A
C4551      F4558   1.358       .  S
C4552      C4553   1.404       .  A
C4552      F4557   1.357       .  S
C4553      C4554   1.407       .  A
C4554      F4555   1.358       .  S
C4559      C4560   1.406       .  A
C4559      C4564   1.403       .  A
C4559      F4566   1.358       .  S
C4560      C4561   1.409       .  A
C4561      C4562   1.395       .  A
C4561      F4568   1.359       .  S
C4562      C4563   1.410       .  A
C4562      F4567   1.358       .  S
C4563      C4564   1.413       .  A
C4564      F4565   1.358       .  S
C4569      C4570   1.406       .  A
C4569      C4574   1.394       .  A
C4569      F4576   1.359       .  S
C4570      C4571   1.406       .  A
C4571      C4572   1.404       .  A
C4571      F4578   1.358       .  S
C4572      C4573   1.412       .  A
C4572      F4577   1.357       .  S
C4573      C4574   1.411       .  A
C4574      F4575   1.358       .  S
C4579      C4580   1.404       .  A
C4579      C4584   1.394       .  A
C4579      F4586   1.359       .  S
C4580      C4581   1.405       .  A
C4581      C4582   1.402       .  A
C4581      F4588   1.358       .  S
C4582      C4583   1.410       .  A
C4582      F4587   1.358       .  S
C4583      C4584   1.410       .  A
C4584      F4585   1.358       .  S
C4589      C4590   1.405       .  A
C4589      C4594   1.401       .  A
C4589      F4596   1.358       .  S
C4590      C4591   1.406       .  A
C4591      C4592   1.393       .  A
C4591      F4598   1.359       .  S
C4592      C4593   1.410       .  A
C4592      F4597   1.358       .  S
C4593      C4594   1.412       .  A
C4594      F4595   1.358       .  S
C4599      C4600   1.405       .  A
C4599      C4604   1.405       .  A
C4599      F4606   1.357       .  S
C4600      C4601   1.405       .  A
C4601      C4602   1.390       .  A
C4601      F4608   1.359       .  S
C4602      C4603   1.412       .  A
C4602      F4607   1.358       .  S
C4603      C4604   1.414       .  A
C4604      F4605   1.357       .  S
