geometry optimzed in LAMMPS
_audit_creation_date              2020-11-30 
_audit_creation_method            'lammps2cif' 
_symmetry_space_group_name_H-M    'P1' 
_symmetry_Int_Tables_number       1 
_symmetry_cell_setting            triclinic 
loop_ 
_symmetry_equiv_pos_as_xyz 
  x,y,z 
_cell_length_a                    50.62045393 
_cell_length_b                    50.68812234269617 
_cell_length_c                    50.848217404616214 
_cell_angle_alpha                 90.17021755999998 
_cell_angle_beta                  90.14918058834857 
_cell_angle_gamma                 90.19824798258645 
loop_ 
_atom_site_label 
_atom_site_type_symbol 
_atom_site_fract_x 
_atom_site_fract_y 
_atom_site_fract_z 
_atom_site_charge 
O1          O  0.77193035  0.64339740  0.81250274    -0.81000
C2          C  0.77714387  0.59121036  0.71566431     0.98400
O3          O  0.77781324  0.58130581  0.73825612    -0.70100
O4          O  0.81655059  0.60373538  0.76128649    -0.73700
Al5        Al  0.78218895  0.59721496  0.77166093     1.49000
C6          C  0.83142878  0.62190333  0.76919896     0.93600
O7          O  0.79829936  0.67568014  0.74882038    -0.79900
O8          O  0.72589833  0.65317310  0.75807711    -0.73500
Al9        Al  0.78577591  0.65760820  0.77987322     1.90100
O10         O  0.76493724  0.66477611  0.72322022    -0.72500
O11         O  0.72873069  0.60366876  0.74610811    -0.72400
O12         O  0.77014138  0.61480205  0.71234816    -0.78000
O13         O  0.74772303  0.58785976  0.78175769    -0.76200
O14         O  0.77251347  0.62992041  0.76243697    -1.12400
O15         O  0.78954972  0.60503668  0.80783356    -0.71600
C16         C  0.77434750  0.61998515  0.82040714     0.99200
C17         C  0.78516794  0.67869165  0.72777987     0.95600
Al18       Al  0.74932175  0.63390690  0.73695375     1.55600
O19         O  0.82195189  0.64161644  0.78197316    -0.76200
C20         C  0.72843498  0.58883922  0.76613286     0.99700
C21         C  0.73012401  0.67323203  0.77208083     0.94600
O22         O  0.75334445  0.67874738  0.77987580    -0.81500
O23         O  0.70108940  0.36649111  0.72399050    -0.81000
C24         C  0.79749585  0.41472418  0.74825572     0.98400
O25         O  0.77563151  0.42577517  0.74416813    -0.70100
O26         O  0.75988947  0.41255572  0.69812694    -0.73700
Al27       Al  0.74318343  0.41310172  0.73089490     1.49000
C28         C  0.75335397  0.39835186  0.67893117     0.93600
O29         O  0.77056106  0.34249381  0.70446330    -0.79900
O30         O  0.74229403  0.34642042  0.77709084    -0.73500
Al31       Al  0.73634916  0.35546829  0.71406083     1.90100
O32         O  0.78603076  0.34111566  0.74515677    -0.72500
O33         O  0.75710659  0.39631027  0.78673217    -0.72400
O34         O  0.79870789  0.39037871  0.75303384    -0.78000
O35         O  0.72662370  0.41696090  0.76390841    -0.76200
O36         O  0.74993787  0.37914694  0.73615308    -1.12400
O37         O  0.70883569  0.40792630  0.71579335    -0.71600
C38         C  0.69330121  0.39019121  0.72369434     0.99200
C39         C  0.78783153  0.33529582  0.72105024     0.95600
Al40       Al  0.76931614  0.36919506  0.76341846     1.55600
O41         O  0.73865879  0.37817524  0.68237532    -0.76200
C42         C  0.73929032  0.41369503  0.78499180     0.99700
C43         C  0.73312835  0.32685224  0.76451228     0.94600
O44         O  0.73231181  0.32735830  0.73962778    -0.81500
O45         O  0.74038093  0.55951220  0.88670111    -0.81000
C46         C  0.75797517  0.46248621  0.83758985     0.98400
O47         O  0.75160911  0.48352695  0.82604329    -0.70100
O48         O  0.70800788  0.50258577  0.84138899    -0.73700
Al49       Al  0.74187539  0.51740967  0.83872515     1.49000
C50         C  0.68985860  0.51243859  0.85480033     0.93600
O51         O  0.71708993  0.49013013  0.90844073    -0.79900
O52         O  0.79019717  0.51878302  0.90374232    -0.73500
Al53       Al  0.72798899  0.52477795  0.89686826     1.90100
O54         O  0.75803508  0.47438216  0.90896573    -0.72500
O55         O  0.80012649  0.50563493  0.85500202    -0.72400
O56         O  0.76687083  0.46278535  0.86062360    -0.78000
O57         O  0.77493947  0.53214474  0.83202694    -0.76200
O58         O  0.74893496  0.51090950  0.87224017    -1.12400
O59         O  0.73062375  0.55334878  0.84525368    -0.71600
C60         C  0.74142488  0.56733527  0.86303128     0.99200
C61         C  0.73366155  0.47217406  0.91441026     0.95600
Al62       Al  0.77669275  0.49199196  0.88142151     1.55600
O63         O  0.69561292  0.52634842  0.87488723    -0.76200
C64         C  0.79729050  0.52338176  0.83781879     0.99700
C65         C  0.77862977  0.52582475  0.92445870     0.94600
O66         O  0.75373569  0.52621244  0.92508965    -0.81500
O67         O  0.69045065  0.88517582  0.51142828    -0.81000
C68         C  0.78946290  0.83718610  0.49643041     0.98400
O69         O  0.76753644  0.82592958  0.49936578    -0.70100
O70         O  0.74687096  0.84019055  0.54276052    -0.73700
Al71       Al  0.73377571  0.83848478  0.50819372     1.49000
C72         C  0.73786261  0.85452142  0.56075636     0.93600
O73         O  0.75876688  0.90875468  0.53626479    -0.79900
O74         O  0.73643836  0.90544045  0.46133314    -0.73500
Al75       Al  0.72516454  0.89620089  0.52359925     1.90100
O76         O  0.77772087  0.91035216  0.49719853    -0.72500
O77         O  0.75188508  0.85495011  0.45262405    -0.72400
O78         O  0.79070207  0.86120686  0.49019415    -0.78000
O79         O  0.72096345  0.83307747  0.47367498    -0.76200
O80         O  0.74047748  0.87236772  0.50281522    -1.12400
O81         O  0.69781365  0.84320030  0.51871651    -0.71600
C82         C  0.68224979  0.86151951  0.51238595     0.99200
C83         C  0.77792392  0.91529420  0.52160537     0.95600
Al84       Al  0.76221544  0.88229288  0.47728599     1.55600
O85         O  0.72371168  0.87430292  0.55517310    -0.76200
C86         C  0.73437324  0.83703945  0.45320752     0.99700
C87         C  0.72634035  0.92480268  0.47348128     0.94600
O88         O  0.72372146  0.92399569  0.49811655    -0.81500
O89         O  0.73686614  0.19211507  0.85694258    -0.81000
C90         C  0.75210812  0.29434649  0.89876536     0.98400
O91         O  0.74771973  0.27336297  0.91114402    -0.70100
O92         O  0.70420272  0.25112388  0.89768221    -0.73700
Al93       Al  0.73935436  0.23867391  0.90087573     1.49000
C94         C  0.68663866  0.23996266  0.88414500     0.93600
O95         O  0.71459175  0.25977139  0.82801637    -0.79900
O96         O  0.78889362  0.23586922  0.83623298    -0.73500
Al97       Al  0.72586680  0.22644903  0.84330294     1.90100
O98         O  0.75460895  0.27727273  0.82665691    -0.72500
O99         O  0.79654669  0.25439906  0.88463508    -0.72400
O100        O  0.76010816  0.29373759  0.87529521    -0.78000
O101        O  0.77374575  0.22632882  0.90828968    -0.76200
O102        O  0.74609600  0.24301996  0.86690386    -1.12400
O103        O  0.72927360  0.20239641  0.89821295    -0.71600
C104        C  0.73556077  0.18555257  0.88104744     0.99200
C105        C  0.73048766  0.27764307  0.82017164     0.95600
Al106      Al  0.77283578  0.26347412  0.85654548     1.55600
O107        O  0.69320003  0.22627740  0.86428017    -0.76200
C108        C  0.79520865  0.23770840  0.90296566     0.99700
C109        C  0.77757529  0.22495130  0.81685901     0.94600
O110        O  0.75270097  0.22278250  0.81649257    -0.81500
O111        O  0.68138174  0.86424419  0.23151019    -0.81000
C112        C  0.77946502  0.91646737  0.23733697     0.98400
O113        O  0.75687047  0.92622322  0.23569681    -0.70100
O114        O  0.73444366  0.90829409  0.19425401    -0.73700
Al115      Al  0.72360834  0.91161929  0.22930268     1.49000
C116        C  0.72486034  0.89234987  0.17780850     0.93600
O117        O  0.74848132  0.83826178  0.20494207    -0.79900
O118        O  0.73356481  0.84826537  0.27926021    -0.73500
Al119      Al  0.71553145  0.85250682  0.21831310     1.90100
O120        O  0.77146471  0.84297526  0.24160222    -0.72500
O121        O  0.74610513  0.89856369  0.28391870    -0.72400
O122        O  0.78269175  0.89285071  0.24421162    -0.78000
O123        O  0.71277673  0.91828904  0.26439088    -0.76200
O124        O  0.73200677  0.87826091  0.23606041    -1.12400
O125        O  0.68771724  0.90538241  0.22052109    -0.71600
C126        C  0.67298902  0.88769019  0.22962352     0.99200
C127        C  0.76909157  0.83398231  0.21863037     0.95600
Al128      Al  0.75629535  0.87115045  0.26030623     1.55600
O129        O  0.71246160  0.87195595  0.18533784    -0.76200
C130        C  0.72731735  0.91490060  0.28431348     0.99700
C131        C  0.72162447  0.82834294  0.27002987     0.94600
O132        O  0.71530430  0.82728798  0.24611708    -0.81500
O133        O  0.80669912  0.98088818  0.10618619    -0.81000
C134        C  0.70709805  0.00405940  0.15108595     0.98400
O135        O  0.72793906  0.99701032  0.16249728    -0.70100
O136        O  0.74476952  0.95231892  0.14582378    -0.73700
Al137      Al  0.76115876  0.98532698  0.15067286     1.49000
C138        C  0.75410754  0.93436038  0.13158915     0.93600
O139        O  0.73744852  0.96452602  0.07743939    -0.79900
O140        O  0.76611257  0.03635416  0.08668882    -0.73500
Al141      Al  0.77148631  0.97298529  0.09261814     1.90100
O142        O  0.72177462  0.00521240  0.07901942    -0.72500
O143        O  0.75090858  0.04369727  0.13656768    -0.72400
O144        O  0.70772304  0.01189902  0.12763780    -0.78000
O145        O  0.77735069  0.01778069  0.15906648    -0.76200
O146        O  0.75688145  0.99365815  0.11708093    -1.12400
O147        O  0.79592266  0.97145797  0.14690793    -0.71600
C148        C  0.81324043  0.97698351  0.12999632     0.99200
C149        C  0.71995947  0.98147320  0.07150510     0.95600
Al150      Al  0.73840023  0.02201733  0.10811160     1.55600
O151        O  0.76909276  0.94007703  0.11250659    -0.76200
C152        C  0.76717403  0.04004359  0.15514446     0.99700
C153        C  0.77556081  0.02463734  0.06686063     0.94600
O154        O  0.77673340  0.99981703  0.06651531    -0.81500
O155        O  0.77079065  0.13437305  0.30598347    -0.81000
C156        C  0.75276861  0.09399611  0.20365675     0.98400
O157        O  0.75716910  0.08101290  0.22427522    -0.70100
O158        O  0.80134966  0.09512533  0.24440859    -0.73700
Al159      Al  0.76742440  0.09140726  0.25870324     1.49000
C160        C  0.81957312  0.10882613  0.25421278     0.93600
O161        O  0.79172750  0.16458404  0.23866468    -0.79900
O162        O  0.71798814  0.15600128  0.26238377    -0.73500
Al163      Al  0.78096979  0.14888404  0.27159164     1.90100
O164        O  0.75185475  0.16552184  0.22091733    -0.72500
O165        O  0.71023600  0.10754545  0.24508172    -0.72400
O166        O  0.74556667  0.11761575  0.20489903    -0.78000
O167        O  0.73397088  0.08427784  0.27281232    -0.76200
O168        O  0.76053471  0.12546990  0.25502333    -1.12400
O169        O  0.77960889  0.09364426  0.29441620    -0.71600
C170        C  0.77347689  0.11014621  0.31200257     0.99200
C171        C  0.77610295  0.17157671  0.22038545     0.95600
Al172      Al  0.73357432  0.13585462  0.23511924     1.55600
O173        O  0.81396981  0.12775245  0.26977073    -0.76200
C174        C  0.71219018  0.08952781  0.26215952     0.99700
C175        C  0.72890835  0.17584379  0.27275575     0.94600
O176        O  0.75375002  0.17597769  0.27608401    -0.81500
O177        O  0.81509566  0.27018491  0.13341306    -0.81000
C178        C  0.71682865  0.24912821  0.08812517     0.98400
O179        O  0.73795760  0.25371132  0.07590199    -0.70100
O180        O  0.75399351  0.29856802  0.09199847    -0.73700
Al181      Al  0.77099319  0.26627689  0.08825457     1.49000
C182        C  0.75988990  0.31655958  0.10792257     0.93600
O183        O  0.74578641  0.28772906  0.16113642    -0.79900
O184        O  0.77444897  0.21579336  0.15162234    -0.73500
Al185      Al  0.77989165  0.27919926  0.14658653     1.90100
O186        O  0.73054128  0.24684988  0.16022748    -0.72500
O187        O  0.75899484  0.20889296  0.10215544    -0.72400
O188        O  0.71711767  0.24181237  0.11167639    -0.78000
O189        O  0.78769952  0.23382220  0.08125875    -0.76200
O190        O  0.76568931  0.25853525  0.12197995    -1.12400
O191        O  0.80537896  0.28133711  0.09327064    -0.71600
C192        C  0.82177402  0.27194404  0.10940894     0.99200
C193        C  0.72813018  0.27081682  0.16674091     0.95600
Al194      Al  0.74694635  0.23043465  0.13077197     1.55600
O195        O  0.77627151  0.31226238  0.12646845    -0.76200
C196        C  0.77642224  0.21191153  0.08457623     0.99700
C197        C  0.78348391  0.22711765  0.17189769     0.94600
O198        O  0.78485528  0.25200782  0.17277544    -0.81500
O199        O  0.76633020  0.11961725  0.93335458    -0.81000
C200        C  0.75955907  0.15818624  0.03728588     0.98400
O201        O  0.76210582  0.17186294  0.01669896    -0.70100
O202        O  0.80341416  0.15527515  0.99356045    -0.73700
Al203      Al  0.76947209  0.16173166  0.98130707     1.49000
C204        C  0.81979061  0.14124807  0.98160952     0.93600
O205        O  0.78830734  0.08632310  0.99892981    -0.79900
O206        O  0.71462343  0.10461236  0.97918830    -0.73500
Al207      Al  0.77700919  0.10364217  0.96673028     1.90100
O208        O  0.74896734  0.08719079  0.01721535    -0.72500
O209        O  0.71384171  0.15083758  0.00022177    -0.72400
O210        O  0.75139166  0.13477630  0.03606119    -0.78000
O211        O  0.73594120  0.17102998  0.96906355    -0.76200
O212        O  0.76027171  0.12834914  0.98487062    -1.12400
O213        O  0.77932522  0.15933736  0.94488959    -0.71600
C214        C  0.77095528  0.14354829  0.92746481     0.99200
C215        C  0.77276554  0.07991633  0.01747023     0.95600
Al216      Al  0.73423052  0.11992891  0.00640476     1.55600
O217        O  0.81182451  0.12230522  0.96691995    -0.76200
C218        C  0.71506509  0.16749543  0.98183548     0.99700
C219        C  0.72157703  0.08441351  0.96675606     0.94600
O220        O  0.74601978  0.07975341  0.96300713    -0.81500
O221        O  0.74026363  0.06092464  0.38336645    -0.81000
C222        C  0.74672623  0.95730419  0.34167334     0.98400
O223        O  0.74416157  0.97862952  0.32946723    -0.70100
O224        O  0.70307889  0.00437584  0.34309966    -0.73700
Al225      Al  0.73909884  0.01378269  0.33981664     1.49000
C226        C  0.68655968  0.01580894  0.35753231     0.93600
O227        O  0.71235325  0.99493668  0.41258827    -0.79900
O228        O  0.78802424  0.01114334  0.40556952    -0.73500
Al229      Al  0.72666371  0.02728438  0.39734551     1.90100
O230        O  0.75009357  0.97332599  0.41343421    -0.72500
O231        O  0.79418293  0.99342906  0.35736830    -0.72400
O232        O  0.75453229  0.95710365  0.36518922    -0.78000
O233        O  0.77460667  0.02296827  0.33262607    -0.76200
O234        O  0.74530041  0.00893586  0.37390626    -1.12400
O235        O  0.73239417  0.05071442  0.34208148    -0.71600
C236        C  0.73917475  0.06748095  0.35918212     0.99200
C237        C  0.72610196  0.97513731  0.41959288     0.95600
Al238      Al  0.76967248  0.98587028  0.38448029     1.55600
O239        O  0.69430301  0.02967077  0.37678140    -0.76200
C240        C  0.79486579  0.01003452  0.33902817     0.99700
C241        C  0.77783668  0.02343084  0.42462340     0.94600
O242        O  0.75356929  0.02895829  0.42421310    -0.81500
O243        O  0.68831888  0.38523547  0.01263646    -0.81000
C244        C  0.78804928  0.33852229  0.00074569     0.98400
O245        O  0.76580251  0.32777035  0.99981215    -0.70100
O246        O  0.74687596  0.34432437  0.04352424    -0.73700
Al247      Al  0.73287383  0.34130653  0.00968042     1.49000
C248        C  0.74186668  0.36156191  0.06063383     0.93600
O249        O  0.75357726  0.41913565  0.03241377    -0.79900
O250        O  0.73960130  0.40567692  0.96034967    -0.73500
Al251      Al  0.72256118  0.40000036  0.02195305     1.90100
O252        O  0.77794334  0.41277315  0.99740432    -0.72500
O253        O  0.75316833  0.35542222  0.95544138    -0.72400
O254        O  0.79060627  0.36270879  0.99548806    -0.78000
O255        O  0.71945643  0.33600935  0.97508029    -0.76200
O256        O  0.73966287  0.37538164  0.00348091    -1.12400
O257        O  0.69783902  0.34472360  0.02221189    -0.71600
C258        C  0.68118461  0.36159569  0.01553651     0.99200
C259        C  0.77372920  0.42447830  0.01888689     0.95600
Al260      Al  0.76333107  0.38355180  0.97910053     1.55600
O261        O  0.72674429  0.38099296  0.05546484    -0.76200
C262        C  0.73402566  0.33916831  0.95507490     0.99700
C263        C  0.72440512  0.42343329  0.96907067     0.94600
O264        O  0.71730592  0.42356722  0.99288876    -0.81500
O265        O  0.76527248  0.61653422  0.42672728    -0.81000
C266        C  0.78125052  0.66043954  0.52766629     0.98400
O267        O  0.77875046  0.67183354  0.50601240    -0.70100
O268        O  0.81499747  0.65239052  0.47652067    -0.73700
Al269      Al  0.77864311  0.65877126  0.47149794     1.49000
C270        C  0.82795670  0.63377584  0.46657210     0.93600
O271        O  0.79562763  0.57809846  0.48479421    -0.79900
O272        O  0.72467926  0.60021180  0.48925413    -0.73500
Al273      Al  0.78034681  0.59951997  0.45759165     1.90100
O274        O  0.76885277  0.58779140  0.51713883    -0.72500
O275        O  0.72878662  0.64893669  0.50369072    -0.72400
O276        O  0.77505145  0.63658492  0.53029008    -0.78000
O277        O  0.74247434  0.66755086  0.46692919    -0.76200
O278        O  0.77004077  0.62529465  0.47905404    -1.12400
O279        O  0.78161907  0.65542114  0.43427599    -0.71600
C280        C  0.76982641  0.63975736  0.41914899     0.99200
C281        C  0.78730009  0.57414924  0.50780538     0.95600
Al282      Al  0.75101664  0.61881764  0.50765846     1.55600
O283        O  0.81612579  0.61506802  0.45408012    -0.76200
C284        C  0.72509146  0.66443028  0.48460595     0.99700
C285        C  0.72586952  0.58311669  0.47135587     0.94600
O286        O  0.74717373  0.57946134  0.45873181    -0.81500
O287        O  0.81505483  0.49409542  0.61029958    -0.81000
C288        C  0.71167842  0.51561541  0.64175348     0.98400
O289        O  0.73174142  0.51327943  0.65623851    -0.70100
O290        O  0.74981985  0.46765689  0.64468456    -0.73700
Al291      Al  0.76572050  0.50071876  0.64888833     1.49000
C292        C  0.75809107  0.44905007  0.63064898     0.93600
O293        O  0.75015487  0.47819868  0.57162552    -0.79900
O294        O  0.77658929  0.54995213  0.58840420    -0.73500
Al295      Al  0.78168411  0.48637749  0.59239990     1.90100
O296        O  0.73612443  0.51920803  0.57104573    -0.72500
O297        O  0.75267011  0.55686007  0.63337091    -0.72400
O298        O  0.71387263  0.52158234  0.61776989    -0.78000
O299        O  0.78122904  0.53383593  0.65618911    -0.76200
O300        O  0.76433929  0.50708298  0.61468814    -1.12400
O301        O  0.80031966  0.48620671  0.64973102    -0.71600
C302        C  0.81908604  0.49238368  0.63483609     0.99200
C303        C  0.73593981  0.49620843  0.56161457     0.95600
Al304      Al  0.74626760  0.53468895  0.60339881     1.55600
O305        O  0.77463437  0.45338421  0.61223007    -0.76200
C306        C  0.76945465  0.55525984  0.65167396     0.99700
C307        C  0.78985819  0.53951399  0.57024920     0.94600
O308        O  0.79127083  0.51458598  0.56802748    -0.81500
O309        O  0.81703965  0.75604882  0.62665464    -0.81000
C310        C  0.71569352  0.75419146  0.58012427     0.98400
O311        O  0.73776186  0.75217157  0.56915728    -0.70100
O312        O  0.76161127  0.79372947  0.58601376    -0.73700
Al313      Al  0.77184383  0.75863422  0.58291672     1.49000
C314        C  0.77077716  0.81029644  0.60213903     0.93600
O315        O  0.75300750  0.78351568  0.65901702    -0.79900
O316        O  0.76071301  0.70992080  0.64622908    -0.73500
Al317      Al  0.78373166  0.76938978  0.64132143     1.90100
O318        O  0.72595009  0.75003968  0.65288998    -0.72500
O319        O  0.74713821  0.70590750  0.59750561    -0.72400
O320        O  0.71327208  0.74877620  0.60408561    -0.78000
O321        O  0.78203519  0.72319767  0.57810562    -0.76200
O322        O  0.76469679  0.75286593  0.61667609    -1.12400
O323        O  0.80814862  0.76755233  0.58649840    -0.71600
C324        C  0.82423884  0.75866230  0.60295736     0.99200
C325        C  0.73120002  0.77193589  0.66318440     0.95600
Al326      Al  0.73893882  0.73049522  0.62463593     1.55600
O327        O  0.78455858  0.80300707  0.62187284    -0.76200
C328        C  0.76723301  0.70365223  0.58301699     0.99700
C329        C  0.77686224  0.71639807  0.66394976     0.94600
O330        O  0.78557309  0.73979775  0.66559512    -0.81500
O331        O  0.73531817  0.68847018  0.35334404    -0.81000
C332        C  0.75133900  0.78891253  0.39863067     0.98400
O333        O  0.74362900  0.76819611  0.41005948    -0.70100
O334        O  0.70131233  0.75103908  0.38785791    -0.73700
Al335      Al  0.73275224  0.73445224  0.39711926     1.49000
C336        C  0.68519624  0.74200391  0.37131595     0.93600
O337        O  0.72239876  0.75713823  0.32169935    -0.79900
O338        O  0.79153371  0.72773350  0.34343814    -0.73500
Al339      Al  0.72864512  0.72315875  0.33802635     1.90100
O340        O  0.76339558  0.77101142  0.32761138    -0.72500
O341        O  0.79133164  0.74556230  0.39064795    -0.72400
O342        O  0.76128249  0.78771824  0.37597355    -0.78000
O343        O  0.76364473  0.71783271  0.40916477    -0.76200
O344        O  0.74534686  0.73832143  0.36491843    -1.12400
O345        O  0.71868178  0.69961291  0.39145914    -0.71600
C346        C  0.72906397  0.68242754  0.37677654     0.99200
C347        C  0.74063410  0.77409365  0.31803881     0.95600
Al348      Al  0.77459545  0.75649875  0.35975194     1.55600
O349        O  0.69296981  0.72622283  0.35342187    -0.76200
C350        C  0.78640968  0.72750115  0.40687822     0.99700
C351        C  0.78419077  0.71809337  0.32185951     0.94600
O352        O  0.75983325  0.71745843  0.31602108    -0.81500
O353        O  0.46157947  0.77712655  0.60913922    -0.81000
C354        C  0.55962967  0.74537106  0.65016757     0.98400
O355        O  0.53839632  0.74791197  0.66271920    -0.70100
O356        O  0.52469909  0.79535924  0.65236911    -0.73700
Al357      Al  0.50606222  0.76333572  0.65229725     1.49000
C358        C  0.52004470  0.81545430  0.63874849     0.93600
O359        O  0.53160457  0.79075401  0.58095774    -0.79900
O360        O  0.49967031  0.72014904  0.58439634    -0.73500
Al361      Al  0.49746438  0.78337959  0.59612573     1.90100
O362        O  0.54466813  0.74945994  0.57784691    -0.72500
O363        O  0.51580885  0.70748838  0.63210816    -0.72400
O364        O  0.55928103  0.74039209  0.62588601    -0.78000
O365        O  0.48759248  0.73099018  0.65505013    -0.76200
O366        O  0.51064528  0.75938278  0.61795187    -1.12400
O367        O  0.47246176  0.78018025  0.65062134    -0.71600
C368        C  0.45492634  0.77796258  0.63316878     0.99200
C369        C  0.54755622  0.77350471  0.57244977     0.95600
Al370      Al  0.52829395  0.73155088  0.60599139     1.55600
O371        O  0.50421025  0.81404697  0.61930912    -0.76200
C372        C  0.49754976  0.70905144  0.64893660     0.99700
C373        C  0.48948795  0.73392495  0.56636838     0.94600
O374        O  0.48940486  0.75883517  0.56803446    -0.81500
O375        O  0.61960576  0.81491428  0.47090866    -0.81000
C376        C  0.67855628  0.72086910  0.47267730     0.98400
O377        O  0.68644550  0.74385180  0.46838130    -0.70100
O378        O  0.66437783  0.76647031  0.42954659    -0.73700
Al379      Al  0.66984606  0.77645817  0.46472065     1.49000
C380        C  0.64619801  0.77395237  0.41452036     0.93600
O381        O  0.59588886  0.74653048  0.44586291    -0.79900
O382        O  0.61034090  0.76324818  0.51954554    -0.73500
Al383      Al  0.60929344  0.78020355  0.45821463     1.90100
O384        O  0.60491247  0.72425356  0.48198155    -0.72500
O385        O  0.66107609  0.75366477  0.52042109    -0.72400
O386        O  0.65585957  0.71649720  0.48195459    -0.78000
O387        O  0.67966491  0.78670626  0.49956113    -0.76200
O388        O  0.63746333  0.76579027  0.47396949    -1.12400
O389        O  0.66075134  0.81224856  0.45829498    -0.71600
C390        C  0.64226301  0.82523387  0.46843815     0.99200
C391        C  0.59334778  0.72611940  0.46011323     0.95600
Al392      Al  0.63331386  0.74155832  0.49886840     1.55600
O393        O  0.62562940  0.78455728  0.42381809    -0.76200
C394        C  0.67729775  0.77250850  0.51979904     0.99700
C395        C  0.58951721  0.77433225  0.51159564     0.94600
O396        O  0.58616216  0.77886396  0.48755965    -0.81500
O397        O  0.50099153  0.62500983  0.79821527    -0.81000
C398        C  0.50976054  0.65278994  0.69194804     0.98400
O399        O  0.50877104  0.66789453  0.71156788    -0.70100
O400        O  0.46541241  0.66026341  0.73682465    -0.73700
Al401      Al  0.50138905  0.66238686  0.74720122     1.49000
C402        C  0.44779034  0.64964269  0.75066610     0.93600
O403        O  0.46895436  0.58883732  0.73872499    -0.79900
O404        O  0.54518506  0.59500412  0.75419716    -0.73500
Al405      Al  0.48465651  0.60805072  0.76777656     1.90100
O406        O  0.50676437  0.58347241  0.71758875    -0.72500
O407        O  0.55530876  0.63971154  0.72966662    -0.72400
O408        O  0.51484272  0.62864460  0.69458541    -0.78000
O409        O  0.53716500  0.66792244  0.75691762    -0.76200
O410        O  0.50481746  0.62760728  0.74649482    -1.12400
O411        O  0.49294003  0.66461162  0.78374804    -0.71600
C412        C  0.50302550  0.64980477  0.80086891     0.99200
C413        C  0.48267012  0.57761007  0.72099530     0.95600
Al414      Al  0.52862169  0.61278990  0.72575750     1.55600
O415        O  0.45400337  0.63185928  0.76714012    -0.76200
C416        C  0.55716518  0.65947328  0.74474937     0.99700
C417        C  0.53369745  0.57806143  0.76831626     0.94600
O418        O  0.50930115  0.57978392  0.77271407    -0.81500
O419        O  0.62153024  0.44834213  0.74438401    -0.81000
C420        C  0.66965773  0.54796040  0.74926239     0.98400
O421        O  0.68104399  0.52584059  0.74913371    -0.70100
O422        O  0.66354866  0.49906606  0.78837855    -0.73700
Al423      Al  0.66767647  0.49092710  0.75264972     1.49000
C424        C  0.64757000  0.48786631  0.80361446     0.93600
O425        O  0.59355971  0.51099367  0.77678313    -0.79900
O426        O  0.60830041  0.50221725  0.70148080    -0.73500
Al427      Al  0.60857432  0.48021071  0.76067085     1.90100
O428        O  0.59677841  0.53624672  0.74170364    -0.72500
O429        O  0.65600481  0.51816268  0.70048599    -0.72400
O430        O  0.64575021  0.55004711  0.74313020    -0.78000
O431        O  0.67433884  0.48263652  0.71705833    -0.76200
O432        O  0.63433150  0.49885762  0.74580328    -1.12400
O433        O  0.66197347  0.45375165  0.75812694    -0.71600
C434        C  0.64509895  0.44034252  0.74555545     0.99200
C435        C  0.58876431  0.53232108  0.76481442     0.95600
Al436      Al  0.62709652  0.52457639  0.72352535     1.55600
O437        O  0.62776228  0.47515488  0.79437774    -0.76200
C438        C  0.67051243  0.49810024  0.69807278     0.99700
C439        C  0.58869519  0.48823655  0.70698560     0.94600
O440        O  0.58405117  0.48168226  0.73062715    -0.81500
O441        O  0.65147439  0.81713758  0.75686482    -0.81000
C442        C  0.60202069  0.71778717  0.75577616     0.98400
O443        O  0.59158433  0.74020683  0.75601736    -0.70100
O444        O  0.60672213  0.76624788  0.79643380    -0.73700
Al445      Al  0.60493468  0.77458787  0.76059898     1.49000
C446        C  0.62181824  0.77681701  0.81305058     0.93600
O447        O  0.67913255  0.75400023  0.78940143    -0.79900
O448        O  0.66988894  0.76437882  0.71356980    -0.73500
Al449      Al  0.66352090  0.78491020  0.77342889     1.90100
O450        O  0.67638555  0.72905926  0.75388773    -0.72500
O451        O  0.62021680  0.74839185  0.70821825    -0.72400
O452        O  0.62621502  0.71499492  0.75038550    -0.78000
O453        O  0.59970752  0.78282680  0.72461461    -0.76200
O454        O  0.63882226  0.76651713  0.75594291    -1.12400
O455        O  0.61011426  0.81158045  0.76690147    -0.71600
C456        C  0.62789755  0.82519212  0.75620553     0.99200
C457        C  0.68610286  0.73373017  0.77638874     0.95600
Al458      Al  0.64760185  0.74131248  0.73337196     1.55600
O459        O  0.64233047  0.78930379  0.80562279    -0.76200
C460        C  0.60357069  0.76677658  0.70601273     0.99700
C461        C  0.68914837  0.77757467  0.72260612     0.94600
O462        O  0.68991725  0.78402378  0.74652498    -0.81500
O463        O  0.37908964  0.75052801  0.67780510    -0.81000
C464        C  0.41663009  0.76073680  0.78125704     0.98400
O465        O  0.43022673  0.75705454  0.76083363    -0.70100
O466        O  0.41372599  0.71475676  0.73904887    -0.73700
Al467      Al  0.42064050  0.74842250  0.72597376     1.49000
C468        C  0.40014082  0.69803345  0.72682507     0.93600
O469        O  0.34455123  0.72938750  0.74363788    -0.79900
O470        O  0.36352308  0.80268637  0.72118435    -0.73500
Al471      Al  0.36256409  0.74006453  0.71114459     1.90100
O472        O  0.34580917  0.76957851  0.76029015    -0.72500
O473        O  0.40980428  0.80471735  0.74309681    -0.72400
O474        O  0.39320613  0.76874669  0.77983322    -0.78000
O475        O  0.43072472  0.78163861  0.71315131    -0.76200
O476        O  0.38721267  0.75757811  0.72900654    -1.12400
O477        O  0.41855515  0.73754805  0.68995638    -0.71600
C478        C  0.40332605  0.74648725  0.67246879     0.99200
C479        C  0.33782955  0.74593256  0.76133147     0.95600
Al480      Al  0.37862768  0.78440636  0.74940797     1.55600
O481        O  0.38139977  0.70557770  0.71178436    -0.76200
C482        C  0.42767138  0.80264208  0.72592410     0.99700
C483        C  0.34250089  0.79486712  0.71060358     0.94600
O484        O  0.33838640  0.77029397  0.70721212    -0.81500
O485        O  0.52305175  0.70175103  0.87869578    -0.81000
C486        C  0.51073559  0.80446626  0.83896469     0.98400
O487        O  0.51715310  0.78411618  0.82601705    -0.70100
O488        O  0.55928900  0.76251654  0.84383622    -0.73700
Al489      Al  0.52579224  0.74882629  0.83601344     1.49000
C490        C  0.57561309  0.75149410  0.85871508     0.93600
O491        O  0.54150423  0.76800096  0.91176312    -0.79900
O492        O  0.46987702  0.74211054  0.89143450    -0.73500
Al493      Al  0.53253349  0.73510389  0.89440359     1.90100
O494        O  0.50081075  0.78338912  0.90926346    -0.72500
O495        O  0.46804051  0.76354381  0.84535911    -0.72400
O496        O  0.50155677  0.80255984  0.86186709    -0.78000
O497        O  0.49314612  0.73521945  0.82461735    -0.76200
O498        O  0.51529856  0.75206371  0.86897155    -1.12400
O499        O  0.53659380  0.71244782  0.83929275    -0.71600
C500        C  0.52612242  0.69582918  0.85471240     0.99200
C501        C  0.52430145  0.78532587  0.91749625     0.95600
Al502      Al  0.48727316  0.77126317  0.87654928     1.55600
O503        O  0.56752758  0.73649244  0.87708182    -0.76200
C504        C  0.47134687  0.74652785  0.82757217     0.99700
C505        C  0.47762987  0.72991405  0.91146768     0.94600
O506        O  0.50198964  0.72957811  0.91740034    -0.81500
O507        O  0.88850224  0.72727205  0.54971789    -0.81000
C508        C  0.84333280  0.73721283  0.45023558     0.98400
O509        O  0.83123962  0.73201027  0.47120785    -0.70100
O510        O  0.85164433  0.68972066  0.48976288    -0.73700
Al511      Al  0.84359837  0.72326287  0.50475253     1.49000
C512        C  0.87045497  0.67514825  0.49654681     0.93600
O513        O  0.91991536  0.71259541  0.48099219    -0.79900
O514        O  0.89802775  0.78293946  0.50733477    -0.73500
Al515      Al  0.90346883  0.72001451  0.51482312     1.90100
O516        O  0.91407752  0.75261751  0.46560637    -0.72500
O517        O  0.84980391  0.78127346  0.48940127    -0.72400
O518        O  0.86584249  0.74765528  0.45045542    -0.78000
O519        O  0.83150025  0.75582646  0.51917309    -0.76200
O520        O  0.87624063  0.73573783  0.49974423    -1.12400
O521        O  0.84938412  0.71146026  0.53995205    -0.71600
C522        C  0.86511129  0.72123495  0.55662283     0.99200
C523        C  0.92354493  0.72980878  0.46323016     0.95600
Al524      Al  0.88150408  0.76388962  0.47991462     1.55600
O525        O  0.88829502  0.68424209  0.51194789    -0.76200
C526        C  0.83286949  0.77757863  0.50716087     0.99700
C527        C  0.91977182  0.77627191  0.51728914     0.94600
O528        O  0.92539536  0.75196216  0.51958401    -0.81500
O529        O  0.86141833  0.74766844  0.18030790    -0.81000
C530        C  0.90061347  0.75105064  0.28425131     0.98400
O531        O  0.91307043  0.75048306  0.26294213    -0.70100
O532        O  0.90213980  0.70895102  0.23575065    -0.73700
Al533      Al  0.90337693  0.74515258  0.22758560     1.49000
C534        C  0.88982519  0.69203175  0.22232721     0.93600
O535        O  0.83055921  0.71178427  0.23959297    -0.79900
O536        O  0.83404865  0.78845642  0.23110404    -0.73500
Al537      Al  0.84725885  0.72956063  0.21073702     1.90100
O538        O  0.82820791  0.74672872  0.26573239    -0.72500
O539        O  0.88202701  0.79771470  0.25051570    -0.72400
O540        O  0.87608575  0.75536813  0.28437893    -0.78000
O541        O  0.90769127  0.78126112  0.21979719    -0.76200
O542        O  0.86871242  0.74828940  0.23182587    -1.12400
O543        O  0.90229202  0.73884343  0.19043765    -0.71600
C544        C  0.88578432  0.74919103  0.17508561     0.99200
C545        C  0.82139537  0.72334747  0.25977597     0.95600
Al546      Al  0.85598769  0.77024812  0.25587546     1.55600
O547        O  0.87088061  0.69900682  0.20746154    -0.76200
C548        C  0.90060901  0.80037379  0.23410995     0.99700
C549        C  0.81669750  0.77804932  0.21645221     0.94600
O550        O  0.81868005  0.75425920  0.20964748    -0.81500
O551        O  0.24546960  0.68662968  0.85464702    -0.81000
C552        C  0.25387387  0.78961016  0.89629776     0.98400
O553        O  0.25568179  0.76819985  0.90855064    -0.70100
O554        O  0.21353609  0.74359784  0.89651489    -0.73700
Al555      Al  0.24892926  0.73328707  0.89768779     1.49000
C556        C  0.19558324  0.73756976  0.88048903     0.93600
O557        O  0.21992334  0.74997663  0.82178760    -0.79900
O558        O  0.29462117  0.73897797  0.83189932    -0.73500
Al559      Al  0.23354699  0.71998457  0.84003093     1.90100
O560        O  0.25568988  0.77430179  0.82356700    -0.72500
O561        O  0.30102630  0.75728308  0.87969172    -0.72400
O562        O  0.25841821  0.79057815  0.87197877    -0.78000
O563        O  0.28512267  0.72369596  0.90193324    -0.76200
O564        O  0.25267230  0.73876938  0.86318251    -1.12400
O565        O  0.24046743  0.69688319  0.89599486    -0.71600
C566        C  0.24524251  0.68001056  0.87858090     0.99200
C567        C  0.23306446  0.76970738  0.81435774     0.95600
Al568      Al  0.27550524  0.76315577  0.85260536     1.55600
O569        O  0.20050269  0.72234145  0.86101489    -0.76200
C570        C  0.30401858  0.73918354  0.89639726     0.99700
C571        C  0.28565828  0.72515694  0.81316457     0.94600
O572        O  0.26200611  0.71658242  0.81390579    -0.81500
O573        O  0.32289721  0.77056013  0.12355704    -0.81000
C574        C  0.22368521  0.76935717  0.07295627     0.98400
O575        O  0.24625030  0.76991173  0.06290342    -0.70100
O576        O  0.26870590  0.80981618  0.08375662    -0.73700
Al577      Al  0.27974581  0.77558759  0.07815033     1.49000
C578        C  0.27589590  0.82538798  0.10162710     0.93600
O579        O  0.25856721  0.79263778  0.15669674    -0.79900
O580        O  0.26768171  0.72097447  0.13576005    -0.73500
Al581      Al  0.28925097  0.78133347  0.13786441     1.90100
O582        O  0.23196845  0.75980145  0.14686509    -0.72500
O583        O  0.25513192  0.72152500  0.08602464    -0.72400
O584        O  0.22059291  0.76302278  0.09667090    -0.78000
O585        O  0.29063736  0.74087763  0.06989709    -0.76200
O586        O  0.27147079  0.76673309  0.11107031    -1.12400
O587        O  0.31579714  0.78478186  0.08396508    -0.71600
C588        C  0.33120705  0.77531209  0.10075101     0.99200
C589        C  0.23742277  0.77999482  0.16050527     0.95600
Al590      Al  0.24595631  0.74329779  0.11606583     1.55600
O591        O  0.28899012  0.81706391  0.12153873    -0.76200
C592        C  0.27516511  0.72128092  0.07102389     0.99700
C593        C  0.28306455  0.72587143  0.15461155     0.94600
O594        O  0.29137010  0.74915889  0.15889029    -0.81500
O595        O  0.11888961  0.80319383  0.97671920    -0.81000
C596        C  0.16360673  0.70242261  0.98312225     0.98400
O597        O  0.17560683  0.72433287  0.98346993    -0.70100
O598        O  0.16140628  0.74831982  0.94195067    -0.73700
Al599      Al  0.16348754  0.75920592  0.97659835     1.49000
C600        C  0.14463376  0.75388281  0.92471459     0.93600
O601        O  0.08554894  0.73919511  0.95252569    -0.79900
O602        O  0.10193655  0.75264126  0.02596551    -0.73500
Al603      Al  0.10445573  0.76990956  0.96462848     1.90100
O604        O  0.08992103  0.71612039  0.98861723    -0.72500
O605        O  0.14972769  0.73528002  0.02929072    -0.72400
O606        O  0.13928212  0.70107880  0.98810749    -0.78000
O607        O  0.16854767  0.77012389  0.01180379    -0.76200
O608        O  0.12927834  0.75216904  0.98208873    -1.12400
O609        O  0.15985840  0.79577771  0.96744263    -0.71600
C610        C  0.14261225  0.81070228  0.97703859     0.99200
C611        C  0.07876697  0.71998735  0.96678303     0.95600
Al612      Al  0.12076969  0.72824720  0.00593612     1.55600
O613        O  0.12403061  0.76738150  0.93053411    -0.76200
C614        C  0.16497679  0.75495251  0.03113113     0.99700
C615        C  0.08348563  0.76754852  0.01888491     0.94600
O616        O  0.08048625  0.77376770  0.99482243    -0.81500
O617        O  0.93875693  0.76621533  0.09838762    -0.81000
C618        C  0.04124611  0.75841434  0.13943472     0.98400
O619        O  0.02020776  0.76246618  0.15203338    -0.70100
O620        O  0.99745624  0.80426771  0.13522955    -0.73700
Al621      Al  0.98517476  0.76996328  0.14132425     1.49000
C622        C  0.98648496  0.82056122  0.12026849     0.93600
O623        O  0.00256123  0.78975014  0.06505941    -0.79900
O624        O  0.98410506  0.71610747  0.08230660    -0.73500
Al625      Al  0.97136161  0.77812938  0.08307760     1.90100
O626        O  0.02307500  0.75144887  0.06775521    -0.72500
O627        O  0.00384007  0.71355199  0.13019021    -0.72400
O628        O  0.04068060  0.75096979  0.11586357    -0.78000
O629        O  0.97316722  0.73601894  0.15081199    -0.76200
O630        O  0.98958001  0.76112817  0.10787083    -1.12400
O631        O  0.94851237  0.77967850  0.13808241    -0.71600
C632        C  0.93232974  0.76918326  0.12218761     0.99200
C633        C  0.02072301  0.77422857  0.05772205     0.95600
Al634      Al  0.01110795  0.73506289  0.09953000     1.55600
O635        O  0.97143942  0.81251946  0.10173330    -0.76200
C636        C  0.98653987  0.71529817  0.14807625     0.99700
C637        C  0.97236299  0.72408562  0.06198386     0.94600
O638        O  0.96810820  0.74846458  0.05889018    -0.81500
O639        O  0.13958310  0.81358221  0.24563358    -0.81000
C640        C  0.09633671  0.71187520  0.23634293     0.98400
O641        O  0.08397025  0.73294474  0.24087201    -0.70100
O642        O  0.10385663  0.75313195  0.28251576    -0.73700
Al643      Al  0.09608997  0.76729215  0.24962732     1.49000
C644        C  0.11797041  0.76523645  0.29883367     0.93600
O645        O  0.17234922  0.74685935  0.26531594    -0.79900
O646        O  0.15214266  0.76922982  0.19321834    -0.73500
Al647      Al  0.15506224  0.77972232  0.25552188     1.90100
O648        O  0.16771533  0.72875241  0.22597860    -0.72500
O649        O  0.10423258  0.75114015  0.19260417    -0.72400
O650        O  0.11943888  0.71236838  0.22748798    -0.78000
O651        O  0.08538332  0.78131347  0.21728405    -0.76200
O652        O  0.12901130  0.76279884  0.23900801    -1.12400
O653        O  0.10055992  0.80319398  0.26109887    -0.71600
C654        C  0.11596391  0.82001047  0.25110131     0.99200
C655        C  0.17758023  0.72858975  0.24886878     0.95600
Al656      Al  0.13550009  0.74209696  0.21189549     1.55600
O657        O  0.13715406  0.77961453  0.29076973    -0.76200
C658        C  0.08743192  0.76931006  0.19575341     0.99700
C659        C  0.17358423  0.77956473  0.20019294     0.94600
O660        O  0.17854589  0.78295636  0.22452609    -0.81500
O661        O  0.01840599  0.69306331  0.37171364    -0.81000
C662        C  0.00323383  0.79459318  0.32923244     0.98400
O663        O  0.00756307  0.77325549  0.31748456    -0.70100
O664        O  0.05173416  0.75267206  0.33188698    -0.73700
Al665      Al  0.01674529  0.73929834  0.32839633     1.49000
C666        C  0.06929153  0.74198118  0.34574493     0.93600
O667        O  0.04149687  0.75954004  0.40252166    -0.79900
O668        O  0.96732665  0.73849610  0.39362477    -0.73500
Al669      Al  0.02983566  0.72702786  0.38596743     1.90100
O670        O  0.00267270  0.77936837  0.40158188    -0.72500
O671        O  0.95974471  0.75498268  0.34454003    -0.72400
O672        O  0.99642445  0.79473859  0.35302686    -0.78000
O673        O  0.98232209  0.72628316  0.32122001    -0.76200
O674        O  0.01000394  0.74401690  0.36239488    -1.12400
O675        O  0.02770759  0.70334473  0.33102159    -0.71600
C676        C  0.02037377  0.68653505  0.34769559     0.99200
C677        C  0.02632508  0.77821843  0.40955157     0.95600
Al678      Al  0.98371592  0.76498781  0.37245600     1.55600
O679        O  0.06263083  0.72766670  0.36514301    -0.76200
C680        C  0.96096553  0.73801384  0.32626591     0.99700
C681        C  0.97827565  0.72644581  0.41242354     0.94600
O682        O  0.00290930  0.72291045  0.41230347    -0.81500
O683        O  0.39705246  0.73674260  0.05515651    -0.81000
C684        C  0.34874379  0.73379631  0.95482778     0.98400
O685        O  0.33844781  0.73673178  0.97698601    -0.70100
O686        O  0.35641388  0.69727876  0.00244822    -0.73700
Al687      Al  0.35288449  0.73254008  0.01082627     1.49000
C688        C  0.37370085  0.68136876  0.01027867     0.93600
O689        O  0.43302308  0.71155117  0.99353953    -0.79900
O690        O  0.41427938  0.78254853  0.99648027    -0.73500
Al691      Al  0.41230848  0.72444230  0.02255425     1.90100
O692        O  0.42306995  0.74128237  0.96408747    -0.72500
O693        O  0.36533781  0.78346492  0.98259865    -0.72400
O694        O  0.37293676  0.73886635  0.95145761    -0.78000
O695        O  0.34729332  0.76841851  0.01909478    -0.76200
O696        O  0.38669082  0.73877305  0.00291989    -1.12400
O697        O  0.35659048  0.72540914  0.04711035    -0.71600
C698        C  0.37360816  0.73406314  0.06272240     0.99200
C699        C  0.43703302  0.72230236  0.97156117     0.95600
Al700      Al  0.39351973  0.75971648  0.97586641     1.55600
O701        O  0.39450447  0.68937031  0.02240774    -0.76200
C702        C  0.35056518  0.78655440  0.00231373     0.99700
C703        C  0.43073802  0.77899089  0.01475193     0.94600
O704        O  0.43371424  0.75644542  0.02507652    -0.81500
O705        O  0.03261803  0.19726634  0.87517186    -0.81000
C706        C  0.01728296  0.29248290  0.82571851     0.98400
O707        O  0.02678955  0.26994689  0.82222901    -0.70100
O708        O  0.05114096  0.22741742  0.83562265    -0.73700
Al709      Al  0.01440532  0.23811120  0.83619483     1.49000
C710        C  0.06994694  0.23640017  0.84966097     0.93600
O711        O  0.04268152  0.26327412  0.91471933    -0.79900
O712        O  0.98963680  0.26493737  0.91253309    -0.73500
Al713      Al  0.03496923  0.23249002  0.89251295     1.90100
O714        O  0.02920726  0.29494908  0.88890722    -0.72500
O715        O  0.96469195  0.26509588  0.86732642    -0.72400
O716        O  0.00262008  0.29724020  0.84526776    -0.78000
O717        O  0.97826787  0.24712269  0.83040593    -0.76200
O718        O  0.01536259  0.24956059  0.86884286    -1.12400
O719        O  0.00158521  0.20482826  0.84642040    -0.71600
C720        C  0.01641816  0.18876117  0.85788079     0.99200
C721        C  0.04224065  0.28750298  0.90847335     0.95600
Al722      Al  0.99795241  0.27828630  0.87797296     1.55600
O723        O  0.06645032  0.24141879  0.87374329    -0.76200
C724        C  0.95986124  0.25554147  0.84499711     0.99700
C725        C  0.99001828  0.24214187  0.92297081     0.94600
O726        O  0.00426239  0.22380861  0.91350179    -0.81500
O727        O  0.89106570  0.24519390  0.05067156    -0.81000
C728        C  0.85439099  0.25101137  0.94594177     0.98400
O729        O  0.84138964  0.24861520  0.96682148    -0.70100
O730        O  0.85289162  0.20666642  0.99278337    -0.73700
Al731      Al  0.85004883  0.24274776  0.00222330     1.49000
C732        C  0.86598532  0.18985491  0.00539917     0.93600
O733        O  0.92505566  0.21400514  0.98897993    -0.79900
O734        O  0.91664779  0.28981648  0.00297660    -0.73500
Al735      Al  0.90667152  0.22921623  0.01921853     1.90100
O736        O  0.92619475  0.25135410  0.96674063    -0.72500
O737        O  0.86956139  0.29710787  0.98183991    -0.72400
O738        O  0.87862393  0.25692533  0.94667759    -0.78000
O739        O  0.84362991  0.27854419  0.01100151    -0.76200
O740        O  0.88463255  0.24784550  0.99890335    -1.12400
O741        O  0.85075883  0.23544367  0.03926910    -0.71600
C742        C  0.86647820  0.24637235  0.05521164     0.99200
C743        C  0.93481178  0.22835806  0.97082548     0.95600
Al744      Al  0.89684326  0.27176150  0.97650437     1.55600
O745        O  0.88464757  0.19727919  0.02047008    -0.76200
C746        C  0.85034113  0.29835023  0.99746434     0.99700
C747        C  0.93471664  0.27958411  0.01673715     0.94600
O748        O  0.93382095  0.25544102  0.02233611    -0.81500
O749        O  0.99011159  0.63002292  0.93437214    -0.81000
C750        C  0.99168926  0.57649407  0.03090954     0.98400
O751        O  0.99056053  0.56682051  0.00821401    -0.70100
O752        O  0.95007208  0.58877955  0.98775664    -0.73700
Al753      Al  0.98427713  0.58306579  0.97552512     1.49000
C754        C  0.93465003  0.60675497  0.98060169     0.93600
O755        O  0.96844949  0.66002323  0.00063571    -0.79900
O756        O  0.04040788  0.63959297  0.98746474    -0.73500
Al757      Al  0.97936694  0.64317596  0.96855157     1.90100
O758        O  0.00305583  0.64971366  0.02463893    -0.72500
O759        O  0.03915441  0.59010628  0.99855492    -0.72400
O760        O  0.99918605  0.59991252  0.03449420    -0.78000
O761        O  0.01866998  0.57470282  0.96338949    -0.76200
O762        O  0.99403219  0.61562040  0.98465891    -1.12400
O763        O  0.97450563  0.59049084  0.94003461    -0.71600
C764        C  0.98520750  0.60729771  0.92542186     0.99200
C765        C  0.98202638  0.66246966  0.02140440     0.95600
Al766      Al  0.01846411  0.61965988  0.00925757     1.55600
O767        O  0.94343544  0.62682344  0.96802683    -0.76200
C768        C  0.03890280  0.57600894  0.97797428     0.99700
C769        C  0.03523016  0.65944190  0.97371009     0.94600
O770        O  0.01161329  0.66460796  0.96708855    -0.81500
O771        O  0.86992260  0.50530336  0.05541792    -0.81000
C772        C  0.91656478  0.50566406  0.95604323     0.98400
O773        O  0.92823567  0.50833764  0.97785472    -0.70100
O774        O  0.90856073  0.54813992  0.00134866    -0.73700
Al775      Al  0.91527396  0.51373417  0.01235393     1.49000
C776        C  0.89215402  0.56349601  0.01154306     0.93600
O777        O  0.84016153  0.53194213  0.99109377    -0.79900
O778        O  0.85869729  0.45764540  0.00658498    -0.73500
Al779      Al  0.85590615  0.51897116  0.02278819     1.90100
O780        O  0.84431817  0.49445883  0.96923265    -0.72500
O781        O  0.90749475  0.45865343  0.98955512    -0.72400
O782        O  0.89313495  0.49755489  0.95480018    -0.78000
O783        O  0.92523708  0.47968721  0.02308973    -0.76200
O784        O  0.88236698  0.50393198  0.00540729    -1.12400
O785        O  0.90927196  0.52153175  0.04893477    -0.71600
C786        C  0.89364633  0.50802796  0.06285544     0.99200
C787        C  0.83535192  0.51766155  0.97114477     0.95600
Al788      Al  0.87620662  0.47893917  0.98198974     1.55600
O789        O  0.87340639  0.55424712  0.02564358    -0.76200
C790        C  0.92430849  0.45998958  0.00801197     0.99700
C791        C  0.83751604  0.46387749  0.01776459     0.94600
O792        O  0.83247599  0.48793216  0.02267316    -0.81500
O793        O  0.02320138  0.56284348  0.85916760    -0.81000
C794        C  0.01713209  0.46218103  0.90277856     0.98400
O795        O  0.02093821  0.48327757  0.91546920    -0.70100
O796        O  0.06154415  0.50420483  0.89519190    -0.73700
Al797      Al  0.02856768  0.51775234  0.90331259     1.49000
C798        C  0.07735849  0.51452078  0.87938437     0.93600
O799        O  0.04234602  0.49602898  0.82741044    -0.79900
O800        O  0.97041052  0.51863925  0.84891281    -0.73500
Al801      Al  0.03293001  0.52901598  0.84417608     1.90100
O802        O  0.00273811  0.47848957  0.83261559    -0.72500
O803        O  0.97163758  0.50025459  0.89639484    -0.72400
O804        O  0.00690736  0.46243568  0.88026383    -0.78000
O805        O  0.99598860  0.53112469  0.91485323    -0.76200
O806        O  0.01714196  0.51263402  0.87073046    -1.12400
O807        O  0.03927941  0.55369867  0.89811324    -0.71600
C808        C  0.02830423  0.56973296  0.88264125     0.99200
C809        C  0.02554007  0.47792809  0.82267500     0.95600
Al810      Al  0.98995178  0.49166388  0.86494372     1.55600
O811        O  0.06875454  0.52896115  0.86069074    -0.76200
C812        C  0.97466137  0.51847793  0.91312773     0.99700
C813        C  0.97691022  0.52883722  0.82738744     0.94600
O814        O  0.00118976  0.53188038  0.82173886    -0.81500
O815        O  0.27813050  0.64593311  0.30068159    -0.81000
C816        C  0.27468910  0.59787720  0.20119806     0.98400
O817        O  0.27319291  0.58717852  0.22328224    -0.70100
O818        O  0.31501014  0.60530421  0.24493018    -0.73700
Al819      Al  0.28061699  0.60143605  0.25658243     1.49000
C820        C  0.33176745  0.62186739  0.25284062     0.93600
O821        O  0.30278755  0.67869590  0.23629611    -0.79900
O822        O  0.22918798  0.66380905  0.24689223    -0.73500
Al823      Al  0.29030676  0.66043811  0.26717740     1.90100
O824        O  0.26816368  0.67167151  0.21104595    -0.72500
O825        O  0.22637743  0.61323888  0.23371654    -0.72400
O826        O  0.26830001  0.62171202  0.19835311    -0.78000
O827        O  0.24589443  0.59521565  0.26806436    -0.76200
O828        O  0.27355604  0.63507152  0.24924528    -1.12400
O829        O  0.29085155  0.60600106  0.29217201    -0.71600
C830        C  0.28116464  0.62229548  0.30792885     0.99200
C831        C  0.28954671  0.68369382  0.21574931     0.95600
Al832      Al  0.24988864  0.64208646  0.22451252     1.55600
O833        O  0.32476528  0.64161689  0.26689474    -0.76200
C834        C  0.22596131  0.59778559  0.25335365     0.99700
C835        C  0.23669546  0.68293722  0.26112831     0.94600
O836        O  0.26034791  0.68418752  0.26926964    -0.81500
O837        O  0.31953487  0.48957176  0.10397939    -0.81000
C838        C  0.21728482  0.50764787  0.14438097     0.98400
O839        O  0.23860237  0.50737669  0.15721759    -0.70100
O840        O  0.26296069  0.46363800  0.15074104    -0.73700
Al841      Al  0.27367264  0.49941162  0.14801833     1.49000
C842        C  0.27228558  0.44430574  0.13838359     0.93600
O843        O  0.25166794  0.46307806  0.08015656    -0.79900
O844        O  0.27329997  0.53826226  0.07879884    -0.73500
Al845      Al  0.28488178  0.47717156  0.09281095     1.90100
O846        O  0.23373424  0.50173903  0.07249590    -0.72500
O847        O  0.25319941  0.55148650  0.12451404    -0.72400
O848        O  0.21706493  0.51154783  0.11992467    -0.78000
O849        O  0.28433302  0.53532174  0.14953403    -0.76200
O850        O  0.26833784  0.50016647  0.11366089    -1.12400
O851        O  0.31023562  0.49117263  0.14615591    -0.71600
C852        C  0.32683326  0.49223380  0.12773652     0.99200
C853        C  0.23322090  0.47696936  0.07065299     0.95600
Al854      Al  0.24632095  0.52383383  0.09995606     1.55600
O855        O  0.28537598  0.44796265  0.11755365    -0.76200
C856        C  0.27032528  0.55450870  0.14220690     0.99700
C857        C  0.28549741  0.52545720  0.06133463     0.94600
O858        O  0.28798877  0.50070388  0.06307610    -0.81500
O859        O  0.12857584  0.45010045  0.26289613    -0.81000
C860        C  0.16825876  0.55259258  0.24075819     0.98400
O861        O  0.18101154  0.53171622  0.24509163    -0.70100
O862        O  0.16601272  0.51347010  0.28951687    -0.73700
Al863      Al  0.17058761  0.49772301  0.25681072     1.49000
C864        C  0.15025018  0.50667856  0.30725820     0.93600
O865        O  0.09302319  0.51642937  0.27578156    -0.79900
O866        O  0.11053065  0.49207043  0.20522311    -0.73500
Al867      Al  0.11230371  0.48441227  0.26846676     1.90100
O868        O  0.09570439  0.53365055  0.23634528    -0.72500
O869        O  0.15728167  0.51173284  0.20045871    -0.72400
O870        O  0.14410930  0.55162427  0.23478699    -0.78000
O871        O  0.17822333  0.48205345  0.22393316    -0.76200
O872        O  0.13655921  0.50098142  0.24904027    -1.12400
O873        O  0.16893975  0.46294896  0.27107369    -0.71600
C874        C  0.15255588  0.44465248  0.26710044     0.99200
C875        C  0.08665036  0.53400748  0.25937625     0.95600
Al876      Al  0.12740701  0.52049831  0.22151285     1.55600
O877        O  0.13081658  0.49130911  0.30223628    -0.76200
C878        C  0.17459523  0.49396642  0.20250684     0.99700
C879        C  0.09310296  0.47692374  0.21416325     0.94600
O880        O  0.08927183  0.47500650  0.23878155    -0.81500
O881        O  0.27896354  0.61329929  0.92800805    -0.81000
C882        C  0.26353398  0.66106664  0.02763006     0.98400
O883        O  0.26979733  0.67154603  0.00621832    -0.70100
O884        O  0.31329466  0.65397652  0.98700642    -0.73700
Al885      Al  0.27906946  0.65859891  0.97282861     1.49000
C886        C  0.33044098  0.63885051  0.97749521     0.93600
O887        O  0.30120939  0.58555550  0.99507708    -0.79900
O888        O  0.22732643  0.59345898  0.97409345    -0.73500
Al889      Al  0.28994167  0.60014651  0.96229187     1.90100
O890        O  0.26262056  0.58818200  0.01536899    -0.72500
O891        O  0.22122644  0.64361642  0.98695765    -0.72400
O892        O  0.25592469  0.63742916  0.02826787    -0.78000
O893        O  0.24535352  0.66660293  0.95909927    -0.76200
O894        O  0.27076473  0.62493523  0.97833860    -1.12400
O895        O  0.29053215  0.65399181  0.93724522    -0.71600
C896        C  0.28241952  0.63704469  0.92087275     0.99200
C897        C  0.28629179  0.58033334  0.01436446     0.95600
Al898      Al  0.24400058  0.61630264  0.99925293     1.55600
O899        O  0.32342404  0.62007804  0.96236405    -0.76200
C900        C  0.22350638  0.66164396  0.96992430     0.99700
C901        C  0.23783302  0.57361350  0.96344055     0.94600
O902        O  0.26243703  0.57354623  0.95947667    -0.81500
O903        O  0.14741493  0.43659187  0.97511565    -0.81000
C904        C  0.09966850  0.53541118  0.98925964     0.98400
O905        O  0.08892390  0.51381942  0.98352371    -0.70100
O906        O  0.10581180  0.49391374  0.94055961    -0.73700
Al907      Al  0.10140578  0.48037009  0.97498238     1.49000
C908        C  0.12136073  0.48490637  0.92357527     0.93600
O909        O  0.17531596  0.50534021  0.95378986    -0.79900
O910        O  0.16510196  0.48107321  0.02691463    -0.73500
Al911      Al  0.16031457  0.47136198  0.96417576     1.90100
O912        O  0.17277583  0.52343944  0.99331525    -0.72500
O913        O  0.11502995  0.49585111  0.03276014    -0.72400
O914        O  0.12307978  0.53632636  0.99769719    -0.78000
O915        O  0.09274606  0.46720321  0.00888969    -0.76200
O916        O  0.13506191  0.48661710  0.98330396    -1.12400
O917        O  0.10642300  0.44458662  0.96422719    -0.71600
C918        C  0.12350535  0.42905262  0.97333183     0.99200
C919        C  0.18098323  0.52394157  0.96984533     0.95600
Al920      Al  0.14338063  0.50727564  0.01044481     1.55600
O921        O  0.14087381  0.47100233  0.93071460    -0.76200
C922        C  0.09685996  0.47882751  0.03052666     0.99700
C923        C  0.18503985  0.47080395  0.01610589     0.94600
O924        O  0.18600206  0.46855731  0.99150070    -0.81500
O925        O  0.95212800  0.48099890  0.13264072    -0.81000
C926        C  0.05466891  0.49079495  0.09120582     0.98400
O927        O  0.03287486  0.49026340  0.07930430    -0.70100
O928        O  0.01046085  0.44707624  0.09275431    -0.73700
Al929      Al  0.99835394  0.48152710  0.09054422     1.49000
C930        C  0.00263202  0.42947689  0.10824354     0.93600
O931        O  0.01440782  0.45426591  0.16679207    -0.79900
O932        O  0.00149288  0.52862793  0.15665615    -0.73500
Al933      Al  0.98451031  0.46745594  0.14782097     1.90100
O934        O  0.03869672  0.49035371  0.16474607    -0.72500
O935        O  0.01904897  0.53532257  0.10847260    -0.72400
O936        O  0.05541995  0.49506073  0.11571140    -0.78000
O937        O  0.98677123  0.51646588  0.08607632    -0.76200
O938        O  0.00363260  0.48634761  0.12498846    -1.12400
O939        O  0.96210790  0.47080256  0.09265600    -0.71600
C940        C  0.94641726  0.48140146  0.10853479     0.99200
C941        C  0.03376587  0.46804439  0.17465411     0.95600
Al942      Al  0.02680263  0.51034565  0.13565073     1.55600
O943        O  0.98660293  0.43482526  0.12681281    -0.76200
C944        C  0.00083119  0.53643376  0.09146197     0.99700
C945        C  0.98599175  0.51909791  0.17363121     0.94600
O946        O  0.98016947  0.49490373  0.17341050    -0.81500
O947        O  0.98535085  0.61962766  0.29807145    -0.81000
C948        C  0.00153521  0.65994148  0.19584354     0.98400
O949        O  0.99682954  0.67264326  0.21663030    -0.70100
O950        O  0.95308348  0.65703146  0.23650724    -0.73700
Al951      Al  0.98671196  0.66212182  0.25095984     1.49000
C952        C  0.93541238  0.64354686  0.24734610     0.93600
O953        O  0.96458911  0.58730441  0.23181941    -0.79900
O954        O  0.03783984  0.59970992  0.25516127    -0.73500
Al955      Al  0.97502280  0.60439095  0.26427812     1.90100
O956        O  0.00443114  0.58800628  0.21405517    -0.72500
O957        O  0.04355444  0.64783465  0.23671778    -0.72400
O958        O  0.00852695  0.63615885  0.19687784    -0.78000
O959        O  0.01999983  0.67038569  0.26518385    -0.76200
O960        O  0.99446274  0.62825022  0.24734164    -1.12400
O961        O  0.97450180  0.65978542  0.28661395    -0.71600
C962        C  0.98214938  0.64376202  0.30396777     0.99200
C963        C  0.98083184  0.57988223  0.21426140     0.95600
Al964      Al  0.02145920  0.61860299  0.22746678     1.55600
O965        O  0.94168070  0.62467644  0.26260734    -0.76200
C966        C  0.04143155  0.66614373  0.25351795     0.99700
C967        C  0.02772076  0.57975567  0.26600272     0.94600
O968        O  0.00294670  0.57848244  0.26903223    -0.81500
O969        O  0.23743146  0.06102058  0.88339312    -0.81000
C970        C  0.25469263  0.96073367  0.83890301     0.98400
O971        O  0.24952538  0.98214610  0.82767086    -0.70100
O972        O  0.20482042  0.99984220  0.84438015    -0.73700
Al973      Al  0.23836017  0.01544976  0.84007569     1.49000
C974        C  0.18714204  0.00895821  0.85915158     0.93600
O975        O  0.21640566  0.99493928  0.91496772    -0.79900
O976        O  0.28933526  0.01662406  0.90445095    -0.73500
Al977      Al  0.22667876  0.02718687  0.89799060     1.90100
O978        O  0.25513521  0.97514067  0.91165325    -0.72500
O979        O  0.29571044  0.00215131  0.85532335    -0.72400
O980        O  0.26114573  0.96049461  0.86283039    -0.78000
O981        O  0.27163954  0.03070319  0.83315197    -0.76200
O982        O  0.24612030  0.01056767  0.87388121    -1.12400
O983        O  0.22487261  0.05071714  0.84377644    -0.71600
C984        C  0.23481717  0.06732026  0.85945470     0.99200
C985        C  0.23203361  0.97637702  0.92102106     0.95600
Al986      Al  0.27311261  0.99032847  0.88292071     1.55600
O987        O  0.19328368  0.02469346  0.87782570    -0.76200
C988        C  0.29354923  0.02003718  0.83813390     0.99700
C989        C  0.27887538  0.02867281  0.92346813     0.94600
O990        O  0.25424398  0.03221746  0.92381063    -0.81500
O991        O  0.19779478  0.88653217  0.00086285    -0.81000
C992        C  0.29003937  0.82737102  0.00546475     0.98400
O993        O  0.26671308  0.81912521  0.00607193    -0.70100
O994        O  0.24638940  0.84373212  0.04517078    -0.73700
Al995      Al  0.23504433  0.83753909  0.01066346     1.49000
C996        C  0.24055192  0.86307873  0.05955730     0.93600
O997        O  0.26578602  0.91409883  0.02557964    -0.79900
O998        O  0.25230315  0.89239727  0.95388688    -0.73500
Al999      Al  0.23229355  0.89838382  0.01395042     1.90100
O1000       O  0.28949972  0.90062939  0.99200357    -0.72500
O1001       O  0.26003147  0.84215613  0.95656527    -0.72400
O1002       O  0.29542646  0.85020515  0.99732353    -0.78000
O1003       O  0.22362771  0.82847305  0.97596410    -0.76200
O1004       O  0.24694295  0.86933877  0.00057616    -1.12400
O1005       O  0.19999069  0.84814022  0.01876148    -0.71600
C1006       C  0.18803797  0.86377545  0.00393401     0.99200
C1007       C  0.28694157  0.91491072  0.01210564     0.95600
Al1008     Al  0.27226262  0.87124462  0.97688655     1.55600
O1009       O  0.22946160  0.88344382  0.04978498    -0.76200
C1010       C  0.23884092  0.82890218  0.95626048     0.99700
C1011       C  0.23974181  0.91314729  0.95896000     0.94600
O1012       O  0.23315411  0.91878271  0.98222792    -0.81500
O1013       O  0.63747993  0.43674055  0.46647181    -0.81000
C1014       C  0.59036478  0.53340282  0.47329843     0.98400
O1015       O  0.58640630  0.51101352  0.46325624    -0.70100
O1016       O  0.60012991  0.46628946  0.44178380    -0.73700
Al1017     Al  0.59673031  0.47830213  0.47742904     1.49000
C1018       C  0.61557230  0.47552180  0.42460189     0.93600
O1019       O  0.67968102  0.50032498  0.45916937    -0.79900
O1020       O  0.67031565  0.50099249  0.51454522    -0.73500
Al1021     Al  0.65535189  0.47103016  0.46416093     1.90100
O1022       O  0.65731603  0.53402361  0.47359433    -0.72500
O1023       O  0.62150073  0.50320734  0.53122900    -0.72400
O1024       O  0.60830674  0.53697686  0.49043632    -0.78000
O1025       O  0.58599010  0.48822083  0.51159610    -0.76200
O1026       O  0.63035502  0.48862138  0.48117438    -1.12400
O1027       O  0.60325070  0.44419127  0.49168669    -0.71600
C1028       C  0.61989701  0.42839633  0.48234780     0.99200
C1029       C  0.67768245  0.52491022  0.46272501     0.95600
Al1030     Al  0.63864848  0.51646998  0.50081892     1.55600
O1031       O  0.63940643  0.48043710  0.43058165    -0.76200
C1032       C  0.59806708  0.49507541  0.53224013     0.99700
C1033       C  0.68099511  0.47838395  0.51330152     0.94600
O1034       O  0.67353182  0.46159161  0.49624344    -0.81500
O1035       O  0.49309740  0.64277863  0.43269328    -0.81000
C1036       C  0.50878736  0.60124805  0.53421817     0.98400
O1037       O  0.50412305  0.58890801  0.51324971    -0.70100
O1038       O  0.46062960  0.60296117  0.49195701    -0.73700
Al1039     Al  0.49530043  0.59902652  0.47893087     1.49000
C1040       C  0.44307301  0.61736814  0.48215068     0.93600
O1041       O  0.47091471  0.67239930  0.49890403    -0.79900
O1042       O  0.54498606  0.66349180  0.47589829    -0.73500
Al1043     Al  0.48221144  0.65676188  0.46632498     1.90100
O1044       O  0.51060377  0.67375182  0.51699675    -0.72500
O1045       O  0.55201882  0.61552910  0.49458613    -0.72400
O1046       O  0.51610128  0.62507372  0.53377930    -0.78000
O1047       O  0.52973125  0.59100938  0.46653512    -0.76200
O1048       O  0.50224189  0.63316092  0.48306368    -1.12400
O1049       O  0.48464710  0.60158587  0.44294635    -0.71600
C1050       C  0.49174985  0.61863226  0.42635151     0.99200
C1051       C  0.48644150  0.67999207  0.51704378     0.95600
Al1052     Al  0.52879015  0.64371467  0.50347797     1.55600
O1053       O  0.44946426  0.63613377  0.46700230    -0.76200
C1054       C  0.55090080  0.59647392  0.47861851     0.99700
C1055       C  0.53415089  0.68232151  0.46382181     0.94600
O1056       O  0.50930577  0.68329175  0.46197994    -0.81500
O1057       O  0.44364814  0.49469169  0.63142130    -0.81000
C1058       C  0.53927381  0.49179533  0.57652432     0.98400
O1059       O  0.51637874  0.49362170  0.56703310    -0.70100
O1060       O  0.49112167  0.45456317  0.58552926    -0.73700
Al1061     Al  0.48286199  0.48983502  0.58282148     1.49000
C1062       C  0.48478035  0.43836771  0.60301435     0.93600
O1063       O  0.50781664  0.46723244  0.65896161    -0.79900
O1064       O  0.49915059  0.54099684  0.64087872    -0.73500
Al1065     Al  0.47678071  0.48099628  0.64270172     1.90100
O1066       O  0.53335325  0.50126778  0.65106670    -0.72500
O1067       O  0.51224568  0.54117411  0.59151339    -0.72400
O1068       O  0.54386762  0.49751439  0.60030118    -0.78000
O1069       O  0.47426011  0.52578799  0.57703036    -0.76200
O1070       O  0.49351776  0.49614066  0.61568093    -1.12400
O1071       O  0.44675589  0.48330146  0.59042807    -0.71600
C1072       C  0.43392581  0.49368963  0.60877972     0.99200
C1073       C  0.52833836  0.48051883  0.66381818     0.95600
Al1074     Al  0.52007844  0.51835034  0.62072551     1.55600
O1075       O  0.47397902  0.44612350  0.62444861    -0.76200
C1076       C  0.49149534  0.54385121  0.57785779     0.99700
C1077       C  0.48488190  0.53584569  0.66044788     0.94600
O1078       O  0.47753592  0.51234960  0.66528099    -0.81500
O1079       O  0.63658130  0.94026075  0.97088419    -0.81000
C1080       C  0.59481581  0.04292912  0.97869157     0.98400
O1081       O  0.58361107  0.02156343  0.97278798    -0.70100
O1082       O  0.60334228  0.00042913  0.93064581    -0.73700
Al1083     Al  0.59552700  0.98729842  0.96454383     1.49000
C1084       C  0.62054317  0.99094115  0.91560321     0.93600
O1085       O  0.67425483  0.00256149  0.94861616    -0.79900
O1086       O  0.65614112  0.98813363  0.02068217    -0.73500
Al1087     Al  0.65395658  0.97244810  0.95927478     1.90100
O1088       O  0.66797172  0.02682457  0.98427713    -0.72500
O1089       O  0.60647454  0.00350756  0.02235716    -0.72400
O1090       O  0.61853049  0.04298649  0.98617848    -0.78000
O1091       O  0.58496025  0.97470138  0.99758622    -0.76200
O1092       O  0.62901965  0.99160996  0.97505509    -1.12400
O1093       O  0.59878307  0.95097789  0.95388532    -0.71600
C1094       C  0.61261513  0.93473109  0.96655577     0.99200
C1095       C  0.68016726  0.02224913  0.96292748     0.95600
Al1096     Al  0.63673040  0.01352391  0.00117760     1.55600
O1097       O  0.63700903  0.97408309  0.92444590    -0.76200
C1098       C  0.58857821  0.98606555  0.01937259     0.99700
C1099       C  0.67499446  0.97399629  0.01287423     0.94600
O1100       O  0.67690162  0.96803773  0.98894178    -0.81500
O1101       O  0.56836480  0.87150054  0.01421954    -0.81000
C1102       C  0.46407176  0.90960624  0.01282776     0.98400
O1103       O  0.48536696  0.92190209  0.01642977    -0.70100
O1104       O  0.51181894  0.90628344  0.05734081    -0.73700
Al1105     Al  0.52074014  0.91224563  0.02128146     1.49000
C1106       C  0.52279828  0.88959240  0.07202736     0.93600
O1107       O  0.50750723  0.83328225  0.04149191    -0.79900
O1108       O  0.51804491  0.84992401  0.96785090    -0.73500
Al1109     Al  0.53707082  0.85408432  0.02821631     1.90100
O1110       O  0.48271399  0.83784195  0.00619148    -0.72500
O1111       O  0.49895752  0.89757272  0.96597049    -0.72400
O1112       O  0.46417974  0.88581953  0.00562508    -0.78000
O1113       O  0.52922922  0.92162367  0.98597482    -0.76200
O1114       O  0.51651301  0.87811090  0.01281572    -1.12400
O1115       O  0.55794682  0.91077366  0.02809520    -0.71600
C1116       C  0.57391707  0.89575342  0.01650763     0.99200
C1117       C  0.48781170  0.82622075  0.02749105     0.95600
Al1118     Al  0.49299614  0.86856405  0.98857937     1.55600
O1119       O  0.53791144  0.87218882  0.06213224    -0.76200
C1120       C  0.51585342  0.91583147  0.96565189     0.99700
C1121       C  0.53282769  0.83144893  0.97544557     0.94600
O1122       O  0.53999076  0.83025657  0.99909727    -0.81500
O1123       O  0.51765712  0.06776443  0.86201094    -0.81000
C1124       C  0.52721820  0.97367073  0.92035303     0.98400
O1125       O  0.53017887  0.99720750  0.92680683    -0.70100
O1126       O  0.56751910  0.01753674  0.89849734    -0.73700
Al1127     Al  0.53312755  0.02847040  0.90764739     1.49000
C1128       C  0.57956036  0.02471872  0.87811223     0.93600
O1129       O  0.54308848  0.00317814  0.83005263    -0.79900
O1130       O  0.47373614  0.00672573  0.85301045    -0.73500
Al1131     Al  0.53079097  0.03438618  0.84764155     1.90100
O1132       O  0.51592477  0.97376807  0.84717144    -0.72500
O1133       O  0.47800851  0.00297223  0.90405896    -0.72400
O1134       O  0.51924412  0.96781047  0.89764563    -0.78000
O1135       O  0.49890564  0.03861153  0.91897071    -0.76200
O1136       O  0.52059289  0.01725395  0.87657770    -1.12400
O1137       O  0.54021700  0.06422700  0.89796103    -0.71600
C1138       C  0.52489049  0.07744147  0.88380875     0.99200
C1139       C  0.53399286  0.97991775  0.83129407     0.95600
Al1140     Al  0.49855578  0.99016997  0.87544364     1.55600
O1141       O  0.56747446  0.03801389  0.86041069    -0.76200
C1142       C  0.47894602  0.02337944  0.91857745     0.99700
C1143       C  0.47597914  0.02134315  0.83318983     0.94600
O1144       O  0.49764211  0.03272207  0.82846493    -0.81500
O1145       O  0.63862013  0.31228942  0.26219697    -0.81000
C1146       C  0.59329633  0.21404567  0.24022045     0.98400
O1147       O  0.58144125  0.23508595  0.24606276    -0.70100
O1148       O  0.59637137  0.25229060  0.29099968    -0.73700
Al1149     Al  0.59309976  0.26835518  0.25803038     1.49000
C1150       C  0.61158084  0.25923019  0.30926808     0.93600
O1151       O  0.66669718  0.24327646  0.28014550    -0.79900
O1152       O  0.65658418  0.27239562  0.20843875    -0.73500
Al1153     Al  0.65162024  0.27737966  0.27149320     1.90100
O1154       O  0.66612190  0.22840004  0.23923800    -0.72500
O1155       O  0.60696759  0.25568752  0.20046544    -0.72400
O1156       O  0.61712784  0.21419860  0.23340646    -0.78000
O1157       O  0.58590492  0.28422413  0.22518137    -0.76200
O1158       O  0.62699692  0.26301558  0.25071453    -1.12400
O1159       O  0.59773346  0.30327488  0.27206889    -0.71600
C1160       C  0.61459795  0.31926793  0.26313759     0.99200
C1161       C  0.67328578  0.22614001  0.26303009     0.95600
Al1162     Al  0.63611573  0.24440518  0.22259487     1.55600
O1163       O  0.63105803  0.27444929  0.30452466    -0.76200
C1164       C  0.58887862  0.27265495  0.20343835     0.99700
C1165       C  0.67702655  0.28126455  0.21972241     0.94600
O1166       O  0.67803266  0.28239494  0.24453027    -0.81500
O1167       O  0.43609915  0.27298127  0.10918002    -0.81000
C1168       C  0.53982110  0.25980889  0.14795791     0.98400
O1169       O  0.51906719  0.26473505  0.16057169    -0.70100
O1170       O  0.49909618  0.30812161  0.14384772    -0.73700
Al1171     Al  0.48451803  0.27467302  0.14989600     1.49000
C1172       C  0.48741485  0.32545136  0.13071821     0.93600
O1173       O  0.49952994  0.29555238  0.07386907    -0.79900
O1174       O  0.48072930  0.22200187  0.08703845    -0.73500
Al1175     Al  0.46877063  0.28445245  0.09266389     1.90100
O1176       O  0.52079840  0.25746764  0.07603997    -0.72500
O1177       O  0.49799961  0.21717286  0.13585361    -0.72400
O1178       O  0.53847396  0.25274663  0.12425612    -0.78000
O1179       O  0.47041807  0.24179503  0.15865885    -0.76200
O1180       O  0.48740454  0.26609161  0.11610608    -1.12400
O1181       O  0.44847457  0.28684996  0.14796461    -0.71600
C1182       C  0.43096403  0.27684156  0.13323857     0.99200
C1183       C  0.51790931  0.28036302  0.06635412     0.95600
Al1184     Al  0.50778943  0.23948820  0.10651030     1.55600
O1185       O  0.47100464  0.31853617  0.11272651    -0.76200
C1186       C  0.48098525  0.21988570  0.15400020     0.99700
C1187       C  0.46855957  0.23150148  0.06761484     0.94600
O1188       O  0.46370439  0.25597589  0.06709497    -0.81500
O1189       O  0.48895123  0.12228341  0.30176294    -0.81000
C1190       C  0.49067624  0.16149469  0.19779175     0.98400
O1191       O  0.48780630  0.17384769  0.21913028    -0.70100
O1192       O  0.44711269  0.15438760  0.24273220    -0.73700
Al1193     Al  0.48125541  0.16238210  0.25407852     1.49000
C1194       C  0.43197003  0.13818432  0.25380575     0.93600
O1195       O  0.46524843  0.08316799  0.24014518    -0.79900
O1196       O  0.53775824  0.10526353  0.25046991    -0.73500
Al1197     Al  0.47702770  0.10418010  0.26969797     1.90100
O1198       O  0.49991005  0.08950349  0.21481603    -0.72500
O1199       O  0.53659373  0.15293601  0.23302804    -0.72400
O1200       O  0.49730628  0.13768394  0.19784543    -0.78000
O1201       O  0.51503503  0.17249338  0.26525738    -0.76200
O1202       O  0.49131714  0.12911781  0.24962989    -1.12400
O1203       O  0.47197081  0.16000237  0.29070027    -0.71600
C1204       C  0.48340015  0.14591624  0.30760516     0.99200
C1205       C  0.47869772  0.07730242  0.21995725     0.95600
Al1206     Al  0.51585954  0.12179343  0.22601477     1.55600
O1207       O  0.44129938  0.12056881  0.26923319    -0.76200
C1208       C  0.53555652  0.16960155  0.25165394     0.99700
C1209       C  0.53231080  0.08650877  0.26551896     0.94600
O1210       O  0.50875068  0.08254015  0.27294562    -0.81500
O1211       O  0.61364987  0.94190143  0.26287226    -0.81000
C1212       C  0.65379978  0.04568121  0.25119670     0.98400
O1213       O  0.66655688  0.02463809  0.25460166    -0.70100
O1214       O  0.65141345  0.00213505  0.29691825    -0.73700
Al1215     Al  0.65630479  0.98960246  0.26282346     1.49000
C1216       C  0.63766966  0.99070661  0.31393962     0.93600
O1217       O  0.58046940  0.00625653  0.28539173    -0.79900
O1218       O  0.59497457  0.98777678  0.21185709    -0.73500
Al1219     Al  0.59848034  0.97509685  0.27372895     1.90100
O1220       O  0.58160927  0.02674921  0.24719111    -0.72500
O1221       O  0.64283285  0.00787864  0.20709313    -0.72400
O1222       O  0.62980810  0.04500700  0.24477323    -0.78000
O1223       O  0.66437621  0.97731968  0.22881297    -0.76200
O1224       O  0.62243310  0.99343290  0.25544221    -1.12400
O1225       O  0.65419293  0.95316098  0.27317222    -0.71600
C1226       C  0.63749834  0.93569297  0.26677685     0.99200
C1227       C  0.57249695  0.02439620  0.27026643     0.95600
Al1228     Al  0.61288053  0.01497706  0.22976366     1.55600
O1229       O  0.61848658  0.97588405  0.30709108    -0.76200
C1230       C  0.66083335  0.99060178  0.20822380     0.99700
C1231       C  0.57529973  0.97544167  0.22079139     0.94600
O1232       O  0.57341273  0.97099559  0.24515969    -0.81500
O1233       O  0.44433143  0.98782315  0.12713343    -0.81000
C1234       C  0.54487371  0.99309269  0.07942513     0.98400
O1235       O  0.52339946  0.98522880  0.06945696    -0.70100
O1236       O  0.50282886  0.94495681  0.09365810    -0.73700
Al1237     Al  0.48923475  0.97801848  0.08338080     1.49000
C1238       C  0.49385575  0.93163375  0.11241440     0.93600
O1239       O  0.51078521  0.96965350  0.16008552    -0.79900
O1240       O  0.49078752  0.04015633  0.13620798    -0.73500
Al1241     Al  0.47825226  0.97858343  0.14283200     1.90100
O1242       O  0.53140505  0.00694251  0.15064313    -0.72500
O1243       O  0.50527946  0.03637793  0.08790964    -0.72400
O1244       O  0.54532325  0.00309498  0.10203091    -0.78000
O1245       O  0.47575183  0.00978993  0.06996917    -0.76200
O1246       O  0.49499742  0.99202351  0.11515547    -1.12400
O1247       O  0.45308987  0.96784405  0.09000830    -0.71600
C1248       C  0.43709575  0.98045633  0.10434094     0.99200
C1249       C  0.53039501  0.98511143  0.16251376     0.95600
Al1250     Al  0.51634741  0.01940250  0.11899782     1.55600
O1251       O  0.47839990  0.94229637  0.12913360    -0.76200
C1252       C  0.48708072  0.03189334  0.07146459     0.99700
C1253       C  0.48009868  0.03482484  0.15776667     0.94600
O1254       O  0.47576074  0.01101142  0.16380428    -0.81500
O1255       O  0.48223536  0.14027898  0.93158403    -0.81000
C1256       C  0.49375943  0.09168000  0.02935498     0.98400
O1257       O  0.48748791  0.08116118  0.00784855    -0.70100
O1258       O  0.44432002  0.10010939  0.98877818    -0.73700
Al1259     Al  0.47886056  0.09442966  0.97479773     1.49000
C1260       C  0.42895946  0.11789107  0.98100341     0.93600
O1261       O  0.46253171  0.17008584  0.99987531    -0.79900
O1262       O  0.53491875  0.15485683  0.97647701    -0.73500
Al1263     Al  0.47209759  0.15401149  0.96614168     1.90100
O1264       O  0.50157618  0.16419543  0.01833959    -0.72500
O1265       O  0.53760241  0.10465033  0.99024470    -0.72400
O1266       O  0.50279899  0.11475544  0.03038727    -0.78000
O1267       O  0.51224693  0.08461449  0.96115440    -0.76200
O1268       O  0.48933456  0.12760606  0.98134812    -1.12400
O1269       O  0.46766688  0.10048873  0.93934154    -0.71600
C1270       C  0.47838806  0.11670105  0.92393760     0.99200
C1271       C  0.47879057  0.17432581  0.01864165     0.95600
Al1272     Al  0.51695287  0.13412957  0.00198898     1.55600
O1273       O  0.43774241  0.13645883  0.96663467    -0.76200
C1274       C  0.53420126  0.08720363  0.97274910     0.99700
C1275       C  0.52578530  0.17565497  0.96642411     0.94600
O1276       O  0.50127947  0.17804785  0.96305242    -0.81500
O1277       O  0.61467989  0.31148505  0.98325332    -0.81000
C1278       C  0.65819264  0.21071895  0.99527306     0.98400
O1279       O  0.67064008  0.23175242  0.99034612    -0.70100
O1280       O  0.65272245  0.25190771  0.94820912    -0.73700
Al1281     Al  0.65944688  0.26608049  0.98155534     1.49000
C1282       C  0.63824731  0.26287981  0.93155672     0.93600
O1283       O  0.58501317  0.24334380  0.96446357    -0.79900
O1284       O  0.60322438  0.26931894  0.03659867    -0.73500
Al1285     Al  0.60054435  0.27711220  0.97394801     1.90100
O1286       O  0.58687787  0.22814608  0.00501047    -0.72500
O1287       O  0.65059408  0.24942593  0.03811104    -0.72400
O1288       O  0.63492956  0.21112403  0.00376845    -0.78000
O1289       O  0.66987096  0.27996650  0.01441472    -0.76200
O1290       O  0.62644856  0.26136976  0.99144388    -1.12400
O1291       O  0.65498566  0.30197356  0.97045591    -0.71600
C1292       C  0.63834652  0.31849979  0.97885428     0.99200
C1293       C  0.57964028  0.22565340  0.98133881     0.95600
Al1294     Al  0.61930163  0.24123843  0.01883840     1.55600
O1295       O  0.61878571  0.27687086  0.93919513    -0.76200
C1296       C  0.66829651  0.26676649  0.03524285     0.99700
C1297       C  0.58182856  0.27913684  0.02891742     0.94600
O1298       O  0.57672968  0.28070718  0.00443492    -0.81500
O1299       O  0.06377842  0.88584228  0.21880128    -0.81000
C1300       C  0.96108735  0.84214078  0.22451592     0.98400
O1301       O  0.98277841  0.83052752  0.22205751    -0.70100
O1302       O  0.00525435  0.84876062  0.18088834    -0.73700
Al1303     Al  0.01723574  0.84278444  0.21520366     1.49000
C1304       C  0.01551614  0.86457118  0.16488953     0.93600
O1305       O  0.99923309  0.92027808  0.19635766    -0.79900
O1306       O  0.01405233  0.90322791  0.26944702    -0.73500
Al1307     Al  0.03038733  0.90148469  0.20774661     1.90100
O1308       O  0.97630202  0.91487379  0.23268074    -0.72500
O1309       O  0.99736008  0.85413919  0.27099154    -0.72400
O1310       O  0.96023500  0.86572743  0.23235322    -0.78000
O1311       O  0.02898654  0.83387359  0.24929058    -0.76200
O1312       O  0.01197045  0.87630575  0.22411085    -1.12400
O1313       O  0.05357085  0.84615783  0.20546490    -0.71600
C1314       C  0.07041488  0.86219678  0.21431799     0.99200
C1315       C  0.97981227  0.92630394  0.21088370     0.95600
Al1316     Al  0.98894516  0.88393922  0.24928968     1.55600
O1317       O  0.02999894  0.88353276  0.17311423    -0.76200
C1318       C  0.01566711  0.83721704  0.26996402     0.99700
C1319       C  0.02755125  0.92270461  0.26178266     0.94600
O1320       O  0.03366892  0.92488252  0.23779308    -0.81500
O1321       O  0.87956031  0.02110879  0.18031554    -0.81000
C1322       C  0.83783756  0.01919020  0.27992427     0.98400
O1323       O  0.83392803  0.02952490  0.25783563    -0.70100
O1324       O  0.84613853  0.04812838  0.21187890    -0.73700
Al1325     Al  0.84134586  0.01329711  0.22533881     1.49000
C1326       C  0.86308795  0.06481041  0.21945622     0.93600
O1327       O  0.92632280  0.02670705  0.24129732    -0.79900
O1328       O  0.91287191  0.97267674  0.24466169    -0.73500
Al1329     Al  0.89998262  0.02274378  0.21362106     1.90100
O1330       O  0.90375856  0.01616365  0.27622366    -0.72500
O1331       O  0.86399728  0.95873082  0.24994378    -0.72400
O1332       O  0.85481586  0.00112604  0.28285915    -0.78000
O1333       O  0.82889324  0.98010063  0.23701143    -0.76200
O1334       O  0.87496088  0.00794138  0.23339216    -1.12400
O1335       O  0.84538968  0.99732714  0.19218667    -0.71600
C1336       C  0.85983561  0.00656817  0.17434149     0.99200
C1337       C  0.92466743  0.02479117  0.26601317     0.95600
Al1338     Al  0.88333196  0.98883683  0.26122367     1.55600
O1339       O  0.88690560  0.05778726  0.22291023    -0.76200
C1340       C  0.84015137  0.95882682  0.24316822     0.99700
C1341       C  0.92114351  0.97138879  0.22121495     0.94600
O1342       O  0.91508300  0.98888355  0.20435674    -0.81500
O1343       O  0.31116015  0.27415910  0.62618052    -0.81000
C1344       C  0.21026107  0.24939707  0.58802505     0.98400
O1345       O  0.23093480  0.25246032  0.57464921    -0.70100
O1346       O  0.24700299  0.29879235  0.58659416    -0.73700
Al1347     Al  0.26427514  0.26639629  0.58437026     1.49000
C1348       C  0.25430831  0.31821377  0.60012766     0.93600
O1349       O  0.24355947  0.29302344  0.65666226    -0.79900
O1350       O  0.27110327  0.22051801  0.65026236    -0.73500
Al1351     Al  0.27654481  0.28346602  0.64079764     1.90100
O1352       O  0.22784687  0.25239080  0.65931478    -0.72500
O1353       O  0.25338670  0.21008252  0.60267010    -0.72400
O1354       O  0.21150122  0.24391927  0.61204079    -0.78000
O1355       O  0.28119743  0.23392866  0.57941628    -0.76200
O1356       O  0.26091089  0.26116029  0.61864430    -1.12400
O1357       O  0.29877233  0.28201736  0.58581293    -0.71600
C1358       C  0.31663426  0.27554063  0.60182863     0.99200
C1359       C  0.22622156  0.27676149  0.66446452     0.95600
Al1360     Al  0.24254156  0.23378573  0.63024008     1.55600
O1361       O  0.27148892  0.31524617  0.61833359    -0.76200
C1362       C  0.27096035  0.21203034  0.58505858     0.99700
C1363       C  0.28094040  0.23277775  0.66953923     0.94600
O1364       O  0.28291602  0.25772218  0.66877006    -0.81500
O1365       O  0.06584190  0.86147612  0.51273896    -0.81000
C1366       C  0.96120000  0.89776335  0.50225649     0.98400
O1367       O  0.98194403  0.91103714  0.50575005    -0.70100
O1368       O  0.00335928  0.89451030  0.54831977    -0.73700
Al1369     Al  0.01673277  0.90102131  0.51485617     1.49000
C1370       C  0.01502698  0.88065804  0.56511655     0.93600
O1371       O  0.00260754  0.82352335  0.53466851    -0.79900
O1372       O  0.01939640  0.83944544  0.46160603    -0.73500
Al1373     Al  0.03319587  0.84367133  0.52368405     1.90100
O1374       O  0.98047584  0.82630883  0.49728742    -0.72500
O1375       O  0.00093378  0.88752128  0.45825234    -0.72400
O1376       O  0.96242742  0.87412773  0.49494242    -0.78000
O1377       O  0.02988252  0.91009652  0.48176981    -0.76200
O1378       O  0.01389766  0.86713796  0.50617017    -1.12400
O1379       O  0.05276156  0.90004626  0.52653183    -0.71600
C1380       C  0.07067613  0.88568403  0.51714972     0.99200
C1381       C  0.98370849  0.81616172  0.51981378     0.95600
Al1382     Al  0.99261071  0.85756189  0.48011090     1.55600
O1383       O  0.03115437  0.86274623  0.55784831    -0.76200
C1384       C  0.01826980  0.90557185  0.46034186     0.99700
C1385       C  0.03296841  0.82058651  0.47025044     0.94600
O1386       O  0.03828181  0.81926333  0.49453367    -0.81500
O1387       O  0.86718906  0.01157517  0.56163695    -0.81000
C1388       C  0.90823273  0.99049549  0.46057681     0.98400
O1389       O  0.92107205  0.99653924  0.48100923    -0.70100
O1390       O  0.90704412  0.04107902  0.50040810    -0.73700
Al1391     Al  0.91106991  0.00731372  0.51523387     1.49000
C1392       C  0.89374388  0.05911712  0.51082547     0.93600
O1393       O  0.83856655  0.03035495  0.49319373    -0.79900
O1394       O  0.84722320  0.95772943  0.52124813    -0.73500
Al1395     Al  0.85345197  0.02077250  0.52701512     1.90100
O1396       O  0.83655182  0.98937804  0.47832053    -0.72500
O1397       O  0.89548658  0.94971973  0.50267363    -0.72400
O1398       O  0.88456129  0.98310603  0.46194507    -0.78000
O1399       O  0.91894738  0.97413807  0.52980452    -0.76200
O1400       O  0.87711111  0.99994144  0.51157147    -1.12400
O1401       O  0.90844420  0.01981174  0.55083777    -0.71600
C1402       C  0.89135187  0.01424070  0.56806954     0.99200
C1403       C  0.83144552  0.01365108  0.47579668     0.95600
Al1404     Al  0.86670467  0.97215521  0.49279142     1.55600
O1405       O  0.87448043  0.05336343  0.52565644    -0.76200
C1406       C  0.91436095  0.95235120  0.51879533     0.99700
C1407       C  0.82724956  0.96916987  0.53065994     0.94600
O1408       O  0.82656594  0.99405426  0.53173141    -0.81500
O1409       O  0.94236270  0.98068531  0.63459447    -0.81000
C1410       C  0.03880852  0.98717281  0.57932801     0.98400
O1411       O  0.01593932  0.98408036  0.57041016    -0.70100
O1412       O  0.99378542  0.94328459  0.58979309    -0.73700
Al1413     Al  0.98295791  0.97849578  0.58584145     1.49000
C1414       C  0.98636454  0.92724591  0.60706338     0.93600
O1415       O  0.01138677  0.95844356  0.66026620    -0.79900
O1416       O  0.99378054  0.03180121  0.64708627    -0.73500
Al1417     Al  0.97760202  0.96967801  0.64571750     1.90100
O1418       O  0.03302013  0.99543103  0.65289727    -0.72500
O1419       O  0.00521399  0.03414625  0.59634853    -0.72400
O1420       O  0.04255498  0.99555408  0.60245003    -0.78000
O1421       O  0.97187897  0.01340060  0.57777809    -0.76200
O1422       O  0.99250042  0.98679286  0.61874844    -1.12400
O1423       O  0.94714553  0.97035207  0.59314636    -0.71600
C1424       C  0.93282907  0.97831234  0.61163388     0.99200
C1425       C  0.03134748  0.97334687  0.66394952     0.95600
Al1426     Al  0.01643256  0.01211094  0.62429240     1.55600
O1427       O  0.97543679  0.93541325  0.62796652    -0.76200
C1428       C  0.98646682  0.03353842  0.58000209     0.99700
C1429       C  0.98257555  0.02309627  0.66754248     0.94600
O1430       O  0.97707018  0.99894123  0.66951692    -0.81500
O1431       O  0.13833563  0.93724556  0.48140787    -0.81000
C1432       C  0.10646606  0.04435199  0.49115729     0.98400
O1433       O  0.09263570  0.02385945  0.48871142    -0.70100
O1434       O  0.10237210  0.99757544  0.44643461    -0.73700
Al1435     Al  0.09967221  0.98804369  0.48238041     1.49000
C1436       C  0.11502748  0.98491702  0.42931588     0.93600
O1437       O  0.17541403  0.99855847  0.45413486    -0.79900
O1438       O  0.16608517  0.98495000  0.52906339    -0.73500
Al1439     Al  0.15551526  0.96910578  0.46818391     1.90100
O1440       O  0.17746780  0.02147756  0.49101723    -0.72500
O1441       O  0.12006423  0.00767976  0.53662275    -0.72400
O1442       O  0.13067431  0.04276751  0.49681739    -0.78000
O1443       O  0.09330998  0.97908019  0.51791602    -0.76200
O1444       O  0.13438371  0.98998602  0.48725559    -1.12400
O1445       O  0.09796468  0.95101804  0.47483010    -0.71600
C1446       C  0.11370158  0.93269762  0.48057415     0.99200
C1447       C  0.18514291  0.01725894  0.46778239     0.95600
Al1448     Al  0.14758728  0.01217725  0.51129594     1.55600
O1449       O  0.13379344  0.96984234  0.43618940    -0.76200
C1450       C  0.10042421  0.99239407  0.53777531     0.99700
C1451       C  0.18292089  0.96966385  0.51900809     0.94600
O1452       O  0.18200637  0.96412891  0.49484518    -0.81500
O1453       O  0.99153486  0.13398271  0.43625317    -0.81000
C1454       C  0.00548721  0.08990330  0.53580398     0.98400
O1455       O  0.00226511  0.07772773  0.51447213    -0.70100
O1456       O  0.95836376  0.09190067  0.49410095    -0.73700
Al1457     Al  0.99282726  0.08925466  0.48064591     1.49000
C1458       C  0.94051476  0.10528711  0.48343608     0.93600
O1459       O  0.96683241  0.16182974  0.50322832    -0.79900
O1460       O  0.04121405  0.15532319  0.48017449    -0.73500
Al1461     Al  0.97874933  0.14690324  0.47005846     1.90100
O1462       O  0.00654936  0.16251341  0.52162443    -0.72500
O1463       O  0.04965338  0.10608470  0.49636645    -0.72400
O1464       O  0.01291095  0.11365496  0.53605839    -0.78000
O1465       O  0.02702892  0.08308194  0.46728281    -0.76200
O1466       O  0.99909369  0.12334122  0.48620473    -1.12400
O1467       O  0.98132002  0.09310875  0.44494738    -0.71600
C1468       C  0.99101797  0.10988058  0.42944435     0.99200
C1469       C  0.98253907  0.16939895  0.52144384     0.95600
Al1470     Al  0.02553288  0.13359974  0.50680185     1.55600
O1471       O  0.94651842  0.12505930  0.46935353    -0.76200
C1472       C  0.04846846  0.08834985  0.47882358     0.99700
C1473       C  0.02941833  0.17437708  0.46932368     0.94600
O1474       O  0.00465742  0.17419829  0.46721965    -0.81500
O1475       O  0.94991559  0.26833547  0.60714090    -0.81000
C1476       C  0.05028383  0.25468239  0.65019079     0.98400
O1477       O  0.02894872  0.25589956  0.66282540    -0.70100
O1478       O  0.00910673  0.29955371  0.64896014    -0.73700
Al1479     Al  0.99479099  0.26588720  0.65141388     1.49000
C1480       C  0.00279059  0.31749597  0.63332739     0.93600
O1481       O  0.01621682  0.29168572  0.57848231    -0.79900
O1482       O  0.99473638  0.21719021  0.58623822    -0.73500
Al1483     Al  0.98384422  0.28006229  0.59373960     1.90100
O1484       O  0.03539573  0.25266906  0.57795039    -0.72500
O1485       O  0.01187009  0.21052852  0.63505879    -0.72400
O1486       O  0.05045181  0.24813780  0.62631706    -0.78000
O1487       O  0.98097017  0.23169443  0.65692924    -0.76200
O1488       O  0.00017815  0.25993616  0.61727474    -1.12400
O1489       O  0.95923130  0.27820885  0.64779595    -0.71600
C1490       C  0.94325044  0.26895602  0.63109832     0.99200
C1491       C  0.03485610  0.27671335  0.57154502     0.95600
Al1492     Al  0.02131405  0.23407752  0.60715168     1.55600
O1493       O  0.98625113  0.31292215  0.61488381    -0.76200
C1494       C  0.99400735  0.21101037  0.65243180     0.99700
C1495       C  0.98290088  0.22800511  0.56722551     0.94600
O1496       O  0.97974295  0.25278857  0.56702495    -0.81500
O1497       O  0.11882367  0.30951904  0.47503135    -0.81000
C1498       C  0.16086495  0.20969032  0.49416213     0.98400
O1499       O  0.17362248  0.23080965  0.49059632    -0.70100
O1500       O  0.16086236  0.24967615  0.44593436    -0.73700
Al1501     Al  0.16320419  0.26473370  0.47940117     1.49000
C1502       C  0.14608378  0.25708876  0.42759023     0.93600
O1503       O  0.09139077  0.24149586  0.45310553    -0.79900
O1504       O  0.09877506  0.26824150  0.52618587    -0.73500
Al1505     Al  0.10576004  0.27512607  0.46384783     1.90100
O1506       O  0.08844765  0.22597046  0.49350970    -0.72500
O1507       O  0.14634723  0.24956859  0.53493915    -0.72400
O1508       O  0.13666888  0.20996932  0.49967638    -0.78000
O1509       O  0.16875477  0.27948103  0.51308504    -0.76200
O1510       O  0.12905873  0.25972733  0.48493325    -1.12400
O1511       O  0.15995059  0.30014095  0.46647973    -0.71600
C1512       C  0.14298523  0.31621233  0.47499019     0.99200
C1513       C  0.08381186  0.22391961  0.46917291     0.95600
Al1514     Al  0.11826697  0.24013364  0.51157060     1.55600
O1515       O  0.12741806  0.27317166  0.43199225    -0.76200
C1516       C  0.16417576  0.26702088  0.53397180     0.99700
C1517       C  0.07937625  0.27869245  0.51467105     0.94600
O1518       O  0.07846083  0.27955070  0.48986995    -0.81500
O1519       O  0.26872023  0.11506675  0.43790522    -0.81000
C1520       C  0.25912543  0.15502520  0.54092080     0.98400
O1521       O  0.26441127  0.16770088  0.52027516    -0.70100
O1522       O  0.30645389  0.14955654  0.49887976    -0.73700
Al1523     Al  0.27269574  0.15715074  0.48552813     1.49000
C1524       C  0.32252171  0.13474224  0.48734699     0.93600
O1525       O  0.28893484  0.08130917  0.50406255    -0.79900
O1526       O  0.21630799  0.10022987  0.48156158    -0.73500
Al1527     Al  0.27887069  0.09879662  0.47144947     1.90100
O1528       O  0.24924074  0.08393924  0.52168674    -0.72500
O1529       O  0.21520948  0.14739381  0.50142082    -0.72400
O1530       O  0.25027691  0.13186674  0.53974582    -0.78000
O1531       O  0.23984686  0.16789459  0.47238411    -0.76200
O1532       O  0.26217087  0.12403612  0.48901002    -1.12400
O1533       O  0.28335487  0.15417150  0.44934367    -0.71600
C1534       C  0.27344553  0.13903561  0.43213270     0.99200
C1535       C  0.27277582  0.07574316  0.52241404     0.95600
Al1536     Al  0.23491695  0.11635212  0.50936449     1.55600
O1537       O  0.31399278  0.11643152  0.47225793    -0.76200
C1538       C  0.21817820  0.16482444  0.48396245     0.99700
C1539       C  0.22376533  0.07990237  0.46956321     0.94600
O1540       O  0.24823748  0.07521887  0.46701515    -0.81500
O1541       O  0.31305954  0.98048112  0.61451066    -0.81000
C1542       C  0.20970145  0.99428056  0.65448035     0.98400
O1543       O  0.23024910  0.98745570  0.66641351    -0.70100
O1544       O  0.25158712  0.94490410  0.65000968    -0.73700
Al1545     Al  0.26487197  0.97926173  0.65616651     1.49000
C1546       C  0.26225068  0.92807445  0.63533285     0.93600
O1547       O  0.24723791  0.95717436  0.58202302    -0.79900
O1548       O  0.26778175  0.03077547  0.59111994    -0.73500
Al1549     Al  0.27951657  0.96876682  0.59875356     1.90100
O1550       O  0.22648377  0.99560961  0.58386841    -0.72500
O1551       O  0.25274057  0.03755224  0.63974756    -0.72400
O1552       O  0.21099827  0.00339210  0.63159343    -0.78000
O1553       O  0.27748877  0.01299135  0.66562428    -0.76200
O1554       O  0.26166007  0.98777929  0.62237369    -1.12400
O1555       O  0.30119002  0.96877369  0.65422602    -0.71600
C1556       C  0.31857783  0.97758763  0.63878837     0.99200
C1557       C  0.22778061  0.97189321  0.57622445     0.95600
Al1558     Al  0.24137101  0.01458166  0.61239143     1.55600
O1559       O  0.27887215  0.93543587  0.61821926    -0.76200
C1560       C  0.26852776  0.03513321  0.65886741     0.99700
C1561       C  0.27946629  0.02014092  0.57203673     0.94600
O1562       O  0.28366241  0.99569642  0.57235656    -0.81500
O1563       O  0.01054729  0.05024983  0.35827167    -0.81000
C1564       C  0.00556860  0.94926368  0.40280924     0.98400
O1565       O  0.01004013  0.97073811  0.41475686    -0.70100
O1566       O  0.05066504  0.99385155  0.39604017    -0.73700
Al1567     Al  0.01659426  0.00573459  0.40294222     1.49000
C1568       C  0.06649602  0.00593983  0.38153072     0.93600
O1569       O  0.03428147  0.98461494  0.32770281    -0.79900
O1570       O  0.96073790  0.00461265  0.34681730    -0.73500
Al1571     Al  0.02278949  0.01716840  0.34406746     1.90100
O1572       O  0.99520889  0.96531901  0.33128983    -0.72500
O1573       O  0.96021169  0.98575794  0.39458722    -0.72400
O1574       O  0.99707744  0.94906356  0.37956862    -0.78000
O1575       O  0.98312193  0.01747486  0.41330501    -0.76200
O1576       O  0.00666536  0.99996136  0.37008108    -1.12400
O1577       O  0.02533864  0.04262710  0.39786647    -0.71600
C1578       C  0.01297609  0.05734784  0.38201858     0.99200
C1579       C  0.01843896  0.96584135  0.32212039     0.95600
Al1580     Al  0.98032961  0.97803546  0.36336987     1.55600
O1581       O  0.05781372  0.01934855  0.36213831    -0.76200
C1582       C  0.96246766  0.00379470  0.41170147     0.99700
C1583       C  0.96764598  0.01668115  0.32640882     0.94600
O1584       O  0.99194466  0.01903670  0.32068472    -0.81500
O1585       O  0.38688535  0.23939916  0.55643529    -0.81000
C1586       C  0.35666593  0.24137686  0.44910320     0.98400
O1587       O  0.34270499  0.23747932  0.46916940    -0.70100
O1588       O  0.35837734  0.19673514  0.49512260    -0.73700
Al1589     Al  0.35042934  0.23141462  0.50516094     1.49000
C1590       C  0.37037584  0.18137409  0.51029655     0.93600
O1591       O  0.42749489  0.21096049  0.49819175    -0.79900
O1592       O  0.41114369  0.28570467  0.50835391    -0.73500
Al1593     Al  0.40640109  0.22503606  0.52637217     1.90100
O1594       O  0.42682424  0.24679852  0.47332411    -0.72500
O1595       O  0.36453115  0.28765161  0.48684043    -0.72400
O1596       O  0.38025551  0.24871824  0.45148428    -0.78000
O1597       O  0.34010684  0.26514870  0.51480335    -0.76200
O1598       O  0.38416404  0.24059062  0.50412200    -1.12400
O1599       O  0.34927382  0.22343856  0.54228297    -0.71600
C1600       C  0.36246612  0.23491818  0.56012022     0.99200
C1601       C  0.43587821  0.22409641  0.47864206     0.95600
Al1602     Al  0.39495780  0.26521037  0.48189547     1.55600
O1603       O  0.38706073  0.19064098  0.52687328    -0.76200
C1604       C  0.34546775  0.28616056  0.50296288     0.99700
C1605       C  0.42970740  0.27845685  0.52301930     0.94600
O1606       O  0.43112262  0.25457250  0.53005327    -0.81500
O1607       O  0.20120996  0.38903661  0.49583249    -0.81000
C1608       C  0.30243337  0.34459784  0.49028776     0.98400
O1609       O  0.28073441  0.33276214  0.49386127    -0.70100
O1610       O  0.25763261  0.35010654  0.53527771    -0.73700
Al1611     Al  0.24589416  0.34468434  0.50093239     1.49000
C1612       C  0.24814566  0.36613037  0.55149733     0.93600
O1613       O  0.26552185  0.41966484  0.52251761    -0.79900
O1614       O  0.24903907  0.40451724  0.44813091    -0.73500
Al1615     Al  0.23405825  0.40343389  0.50949591     1.90100
O1616       O  0.28744834  0.41689317  0.48502777    -0.72500
O1617       O  0.26648571  0.35611010  0.44558992    -0.72400
O1618       O  0.30302419  0.36841690  0.48370448    -0.78000
O1619       O  0.23434669  0.33616541  0.46678763    -0.76200
O1620       O  0.25191615  0.37815560  0.49277043    -1.12400
O1621       O  0.20925003  0.34940783  0.51005230    -0.71600
C1622       C  0.19446162  0.36504335  0.49760143     0.99200
C1623       C  0.28511599  0.42559659  0.50827021     0.95600
Al1624     Al  0.27456194  0.38606313  0.46757457     1.55600
O1625       O  0.23287204  0.38457228  0.54373657    -0.76200
C1626       C  0.24835881  0.33888030  0.44656940     0.99700
C1627       C  0.23808717  0.42526948  0.45594799     0.94600
O1628       O  0.23299159  0.42841238  0.48015526    -0.81500
O1629       O  0.23883446  0.18709449  0.36125575    -0.81000
C1630       C  0.26511034  0.28972547  0.39437580     0.98400
O1631       O  0.26102801  0.26980715  0.40850298    -0.70100
O1632       O  0.21475414  0.25371138  0.39617207    -0.73700
Al1633     Al  0.24689897  0.23627820  0.40021273     1.49000
C1634       C  0.19573751  0.24616279  0.38215984     0.93600
O1635       O  0.22197867  0.25279806  0.32515285    -0.79900
O1636       O  0.29362985  0.22549177  0.33492548    -0.73500
Al1637     Al  0.23058442  0.22088516  0.34421092     1.90100
O1638       O  0.26260893  0.26865604  0.32375042    -0.72500
O1639       O  0.30412342  0.24522974  0.38261795    -0.72400
O1640       O  0.27087939  0.28719824  0.37051095    -0.78000
O1641       O  0.27913661  0.21937927  0.40688973    -0.76200
O1642       O  0.25281006  0.23761695  0.36585258    -1.12400
O1643       O  0.23086619  0.20202094  0.40068410    -0.71600
C1644       C  0.23690004  0.18307139  0.38583192     0.99200
C1645       C  0.23866639  0.26937202  0.31641826     1.14800
Al1646     Al  0.28066948  0.25507296  0.35383756     1.55600
O1647       O  0.19877375  0.22782739  0.36529240    -0.76200
C1648       C  0.30138041  0.22908589  0.40149814     0.99700
C1649       C  0.28098164  0.21435177  0.31651932     0.94600
O1650       O  0.25619504  0.21214867  0.31777062    -0.81500
O1651       O  0.51821701  0.19397842  0.37792478    -0.81000
C1652       C  0.49156330  0.29320417  0.33799366     0.98400
O1653       O  0.49995405  0.27350556  0.32535292    -0.70100
O1654       O  0.54516293  0.25957931  0.34288487    -0.73700
Al1655     Al  0.51419966  0.24078897  0.33582201     1.49000
C1656       C  0.56314495  0.25206152  0.35804506     0.93600
O1657       O  0.52835340  0.26283664  0.41232960    -0.79900
O1658       O  0.46029714  0.22765715  0.39325630    -0.73500
Al1659     Al  0.52365261  0.22885967  0.39422706     1.90100
O1660       O  0.48609326  0.27314211  0.40901491    -0.72500
O1661       O  0.45516648  0.24716789  0.34572500    -0.72400
O1662       O  0.48317231  0.29089621  0.36113620    -0.78000
O1663       O  0.48380554  0.22221366  0.32513207    -0.76200
O1664       O  0.50383878  0.24309549  0.36905104    -1.12400
O1665       O  0.53099908  0.20717390  0.33915744    -0.71600
C1666       C  0.52243026  0.18901513  0.35374717     0.99200
C1667       C  0.50880131  0.27736368  0.41868480     0.95600
Al1668     Al  0.47353426  0.25834653  0.37681715     1.55600
O1669       O  0.55804361  0.23564946  0.37636515    -0.76200
C1670       C  0.46085751  0.23121506  0.32744475     0.99700
C1671       C  0.46993876  0.21901112  0.41433283     0.94600
O1672       O  0.49468140  0.22009130  0.41816221    -0.81500
O1673       O  0.56334052  0.37061692  0.52323999    -0.81000
C1674       C  0.47205731  0.42605170  0.50683428     0.98400
O1675       O  0.49293871  0.42789477  0.52034186    -0.70100
O1676       O  0.53380507  0.41046299  0.54696719    -0.73700
Al1677     Al  0.52691998  0.41600645  0.51034222     1.49000
C1678       C  0.52199096  0.39493387  0.56230550     0.93600
O1679       O  0.49496361  0.33568809  0.52273954    -0.79900
O1680       O  0.50430216  0.34636007  0.46591997    -0.73500
Al1681     Al  0.52737000  0.35626705  0.52146714     1.90100
O1682       O  0.46687913  0.36097867  0.50214354    -0.72500
O1683       O  0.50910286  0.39650364  0.45178016    -0.72400
O1684       O  0.47039018  0.41004617  0.48772364    -0.78000
O1685       O  0.52297715  0.42947482  0.47611714    -0.76200
O1686       O  0.51483284  0.38349778  0.50316456    -1.12400
O1687       O  0.56215157  0.40737013  0.50048003    -0.71600
C1688       C  0.57507056  0.38845407  0.50993213     0.99200
C1689       C  0.47156882  0.34094949  0.51587678     0.95600
Al1690     Al  0.48989371  0.37878713  0.47890703     1.55600
O1691       O  0.51584480  0.37206343  0.55441731    -0.76200
C1692       C  0.51851436  0.41947169  0.45393574     0.99700
C1693       C  0.52428937  0.33210324  0.47068106     0.94600
O1694       O  0.53869421  0.33693320  0.49058510    -0.81500
O1695       O  0.36810570  0.01811509  0.05846006    -0.81000
C1696       C  0.41932554  0.01053029  0.96095606     0.98400
O1697       O  0.42852157  0.01849509  0.98245857    -0.70100
O1698       O  0.40676438  0.06002864  0.00243124    -0.73700
Al1699     Al  0.41411758  0.02538282  0.01557198     1.49000
C1700       C  0.38847939  0.07428530  0.01115823     0.93600
O1701       O  0.33872981  0.03963331  0.99086559    -0.79900
O1702       O  0.35330390  0.96706455  0.01081233    -0.73500
Al1703     Al  0.35422732  0.02924920  0.02423708     1.90100
O1704       O  0.34722911  0.00233136  0.96971532    -0.72500
O1705       O  0.40413085  0.96560544  0.00119588    -0.72400
O1706       O  0.39704781  0.99967475  0.95974536    -0.78000
O1707       O  0.42525618  0.99227728  0.02846984    -0.76200
O1708       O  0.38135452  0.01343955  0.00858200    -1.12400
O1709       O  0.40715728  0.03512254  0.05130476    -0.71600
C1710       C  0.39152614  0.02292372  0.06625927     0.99200
C1711       C  0.33621665  0.02466291  0.97081514     0.95600
Al1712     Al  0.37588519  0.98603281  0.98729762     1.55600
O1713       O  0.37068677  0.06410587  0.02558914    -0.76200
C1714       C  0.42146220  0.96965597  0.01869358     0.99700
C1715       C  0.33242527  0.97542471  0.02129592     0.94600
O1716       O  0.33013641  0.99970561  0.02586341    -0.81500
O1717       O  0.36321653  0.23427815  0.17724581    -0.81000
C1718       C  0.40667282  0.24271922  0.27854486     0.98400
O1719       O  0.41922865  0.23782210  0.25770766    -0.70100
O1720       O  0.40146114  0.19622279  0.23534750    -0.73700
Al1721     Al  0.40787381  0.23031635  0.22282875     1.49000
C1722       C  0.38672985  0.17974752  0.22415724     0.93600
O1723       O  0.33489108  0.20942215  0.24347101    -0.79900
O1724       O  0.34784993  0.28390102  0.22160181    -0.73500
Al1725     Al  0.34924209  0.22170691  0.21059693     1.90100
O1726       O  0.33529536  0.24901238  0.26181259    -0.72500
O1727       O  0.39598764  0.28745980  0.23943072    -0.72400
O1728       O  0.38352507  0.25140396  0.27776549    -0.78000
O1729       O  0.41785994  0.26371029  0.21062555    -0.76200
O1730       O  0.37451978  0.23945794  0.22747411    -1.12400
O1731       O  0.40342608  0.22086074  0.18636257    -0.71600
C1732       C  0.38730296  0.23163518  0.17067206     0.99200
C1733       C  0.32985808  0.22461331  0.26272678     0.95600
Al1734     Al  0.36624775  0.26596107  0.24841176     1.55600
O1735       O  0.36843920  0.18768941  0.20888356    -0.76200
C1736       C  0.41389218  0.28518962  0.22227874     0.99700
C1737       C  0.32651696  0.27533544  0.21212786     0.94600
O1738       O  0.32341647  0.25065457  0.20913252    -0.81500
O1739       O  0.55605690  0.39092968  0.23992196    -0.81000
C1740       C  0.45512497  0.34498384  0.23511044     0.98400
O1741       O  0.47719648  0.33356230  0.23413953    -0.70100
O1742       O  0.50305509  0.35214208  0.19491948    -0.73700
Al1743     Al  0.51214421  0.34658034  0.23008745     1.49000
C1744       C  0.51442498  0.36809139  0.17984545     0.93600
O1745       O  0.49409237  0.42280430  0.20894409    -0.79900
O1746       O  0.50255917  0.40526245  0.28343762    -0.73500
Al1747     Al  0.52434644  0.40555833  0.22398229     1.90100
O1748       O  0.46828070  0.41754206  0.24352738    -0.72500
O1749       O  0.48641632  0.35675794  0.28341967    -0.72400
O1750       O  0.45352356  0.36880522  0.24162540    -0.78000
O1751       O  0.52107543  0.33844262  0.26490783    -0.76200
O1752       O  0.50502107  0.37984638  0.23825095    -1.12400
O1753       O  0.54939195  0.35175479  0.22392110    -0.71600
C1754       C  0.56311730  0.36710363  0.23798629     0.99200
C1755       C  0.47316251  0.42805333  0.22157014     0.95600
Al1756     Al  0.47977210  0.38674048  0.26115735     1.55600
O1757       O  0.52821222  0.38710873  0.18938658    -0.76200
C1758       C  0.50575495  0.34098953  0.28416731     0.99700
C1759       C  0.51579581  0.42538413  0.27779932     0.94600
O1760       O  0.52344693  0.42934872  0.25439962    -0.81500
O1761       O  0.36461403  0.51997692  0.55328367    -0.81000
C1762       C  0.40875016  0.51707847  0.45204379     0.98400
O1763       O  0.42099765  0.51633173  0.47372510    -0.70100
O1764       O  0.40981860  0.55674361  0.50132072    -0.73700
Al1765     Al  0.41006372  0.52115428  0.50924247     1.49000
C1766       C  0.39633835  0.57425356  0.51226948     0.93600
O1767       O  0.33779584  0.55407471  0.49269008    -0.79900
O1768       O  0.34460840  0.47720672  0.50219545    -0.73500
Al1769     Al  0.35285106  0.53691187  0.52220330     1.90100
O1770       O  0.33514103  0.51820348  0.46811572    -0.72500
O1771       O  0.39218709  0.47041630  0.48252299    -0.72400
O1772       O  0.38407519  0.51377475  0.45108224    -0.78000
O1773       O  0.41377096  0.48506683  0.51703002    -0.76200
O1774       O  0.37577265  0.51840072  0.50282744    -1.12400
O1775       O  0.40660234  0.52691979  0.54649317    -0.71600
C1776       C  0.38821424  0.51762799  0.56045967     0.99200
C1777       C  0.32816413  0.54164905  0.47336478     0.95600
Al1778     Al  0.36463358  0.49660841  0.47800729     1.55600
O1779       O  0.37617358  0.56812566  0.52596002    -0.76200
C1780       C  0.40961905  0.46730436  0.50014907     0.99700
C1781       C  0.32585495  0.48610900  0.51580350     0.94600
O1782       O  0.32501374  0.51033821  0.52189884    -0.81500
O1783       O  0.52546211  0.56892970  0.36250956    -0.81000
C1784       C  0.50523767  0.46595373  0.39896743     0.98400
O1785       O  0.51093275  0.48614776  0.41245744    -0.70100
O1786       O  0.55518623  0.50429725  0.39624945    -0.73700
Al1787     Al  0.52302630  0.52042439  0.40297525     1.49000
C1788       C  0.57309573  0.51348790  0.38192498     0.93600
O1789       O  0.54070738  0.50463842  0.32591015    -0.79900
O1790       O  0.46954101  0.52955475  0.34457904    -0.73500
Al1791     Al  0.53289732  0.53580669  0.34544513     1.90100
O1792       O  0.50046755  0.48785172  0.32793625    -0.72500
O1793       O  0.46511039  0.50887830  0.39116577    -0.72400
O1794       O  0.49802600  0.46817631  0.37538512    -0.78000
O1795       O  0.49099351  0.53630128  0.41281973    -0.76200
O1796       O  0.51384474  0.51849166  0.36939900    -1.12400
O1797       O  0.53773218  0.55539081  0.40143214    -0.71600
C1798       C  0.53017644  0.57368758  0.38645862     0.99200
C1799       C  0.52349468  0.48823404  0.31810646     0.95600
Al1800     Al  0.48552426  0.50016151  0.36030045     1.55600
O1801       O  0.56744287  0.53035262  0.36408083    -0.76200
C1802       C  0.46872738  0.52575332  0.40928901     0.99700
C1803       C  0.47836851  0.54175893  0.32503279     0.94600
O1804       O  0.50315643  0.54367053  0.32149921    -0.81500
O1805       O  0.20037333  0.37088928  0.24051605    -0.81000
C1806       C  0.29740146  0.42645976  0.24284119     0.98400
O1807       O  0.27423236  0.43419499  0.24603596    -0.70100
O1808       O  0.25326714  0.41548405  0.20328766    -0.73700
Al1809     Al  0.24227257  0.41698121  0.23802065     1.49000
C1810       C  0.24460226  0.39935812  0.18640376     0.93600
O1811       O  0.26511022  0.34050392  0.21280606    -0.79900
O1812       O  0.26170375  0.35311769  0.28449102    -0.73500
Al1813     Al  0.23430726  0.35793858  0.22702115     1.90100
O1814       O  0.29470964  0.35150407  0.24265299    -0.72500
O1815       O  0.26854138  0.40385113  0.28969132    -0.72400
O1816       O  0.30281280  0.40241795  0.24575355    -0.78000
O1817       O  0.23127504  0.41970738  0.27320325    -0.76200
O1818       O  0.25236802  0.38374897  0.24297449    -1.12400
O1819       O  0.20687271  0.41100291  0.22771178    -0.71600
C1820       C  0.19176432  0.39399377  0.23707983     0.99200
C1821       C  0.28798957  0.33831130  0.22268715     0.95600
Al1822     Al  0.27971386  0.37805100  0.26395175     1.55600
O1823       O  0.23264995  0.37805385  0.19327771    -0.76200
C1824       C  0.24717803  0.41683441  0.29219666     0.99700
C1825       C  0.24565451  0.33485051  0.27917202     0.94600
O1826       O  0.23414821  0.33383237  0.25698572    -0.81500
O1827       O  0.07462792  0.36556570  0.01341304    -0.81000
C1828       C  0.97512964  0.40849783  0.99081461     0.98400
O1829       O  0.99548991  0.42114102  0.99785361    -0.70100
O1830       O  0.01183706  0.40383294  0.04187631    -0.73700
Al1831     Al  0.02912974  0.40998588  0.01008210     1.49000
C1832       C  0.01773351  0.38710861  0.05897311     0.93600
O1833       O  0.00496206  0.33601430  0.02695179    -0.79900
O1834       O  0.03753977  0.34967948  0.95732441    -0.73500
Al1835     Al  0.03943129  0.35129801  0.02042524     1.90100
O1836       O  0.99279661  0.33697473  0.98527488    -0.72500
O1837       O  0.01936757  0.39775934  0.95200582    -0.72400
O1838       O  0.97677844  0.38529982  0.98213700    -0.78000
O1839       O  0.04592567  0.41970024  0.97842834    -0.76200
O1840       O  0.02539182  0.37647183  0.00052023    -1.12400
O1841       O  0.06383722  0.40579205  0.02473765    -0.71600
C1842       C  0.08090764  0.38968277  0.01643709     0.99200
C1843       C  0.98835205  0.33077330  0.00886625     0.95600
Al1844     Al  0.00816838  0.36805042  0.97138517     1.55600
O1845       O  0.03494044  0.36962825  0.05410280    -0.76200
C1846       C  0.03565822  0.41619519  0.95613089     0.99700
C1847       C  0.04658117  0.32907439  0.96785852     0.94600
O1848       O  0.04591891  0.32642988  0.99250098    -0.81500
O1849       O  0.39259216  0.53888018  0.17656589    -0.81000
C1850       C  0.35267038  0.52994948  0.27652512     0.98400
O1851       O  0.34839358  0.54157918  0.25514014    -0.70100
O1852       O  0.35824801  0.56281780  0.20961075    -0.73700
Al1853     Al  0.35591572  0.52708719  0.22195313     1.49000
C1854       C  0.37458616  0.58032822  0.21679871     0.93600
O1855       O  0.43979482  0.54589706  0.23762698    -0.79900
O1856       O  0.43038087  0.49024549  0.23790332    -0.73500
Al1857     Al  0.41354127  0.54095570  0.20976094     1.90100
O1858       O  0.41906363  0.53111417  0.27226334    -0.72500
O1859       O  0.38202344  0.47259543  0.24308265    -0.72400
O1860       O  0.37071122  0.51271827  0.27845304    -0.78000
O1861       O  0.34540480  0.49270187  0.23277585    -0.76200
O1862       O  0.38993576  0.52352587  0.22919165    -1.12400
O1863       O  0.36029848  0.51250609  0.18833138    -0.71600
C1864       C  0.37364662  0.52326958  0.17052303     0.99200
C1865       C  0.43859820  0.54283404  0.26230920     0.95600
Al1866     Al  0.39991586  0.50340482  0.25578478     1.55600
O1867       O  0.39859363  0.57443669  0.22025143    -0.76200
C1868       C  0.35768099  0.47174694  0.23810924     0.99700
C1869       C  0.43877663  0.49156338  0.21444225     0.94600
O1870       O  0.43087348  0.50931666  0.19884223    -0.81500
O1871       O  0.24844410  0.56923996  0.37164763    -0.81000
C1872       C  0.26412581  0.46200556  0.34538476     0.98400
O1873       O  0.26255645  0.48130235  0.32982096    -0.70100
O1874       O  0.21873220  0.50447709  0.33930172    -0.73700
Al1875     Al  0.25317927  0.51712006  0.33525769     1.49000
C1876       C  0.20066514  0.51381732  0.35336514     0.93600
O1877       O  0.22792741  0.50825359  0.41197347    -0.79900
O1878       O  0.30174365  0.52614332  0.39694395    -0.73500
Al1879     Al  0.23898362  0.53736806  0.39055058     1.90100
O1880       O  0.26655141  0.48891578  0.41484472    -0.72500
O1881       O  0.30780456  0.50035189  0.35342953    -0.72400
O1882       O  0.26925816  0.46538910  0.36935517    -0.78000
O1883       O  0.28793674  0.52926443  0.32821390    -0.76200
O1884       O  0.25866306  0.51709803  0.36966630    -1.12400
O1885       O  0.24192213  0.55300738  0.33232901    -0.71600
C1886       C  0.24628092  0.57252314  0.34712106     0.99200
C1887       C  0.24280227  0.49104908  0.42201943     0.95600
Al1888     Al  0.28421769  0.49699334  0.38274247     1.55600
O1889       O  0.20578223  0.53130835  0.37074668    -0.76200
C1890       C  0.30837534  0.51654787  0.33462308     0.99700
C1891       C  0.29246108  0.54252090  0.41294451     0.94600
O1892       O  0.26773607  0.54635707  0.41464070    -0.81500
O1893       O  0.88546104  0.52329698  0.68694986    -0.81000
C1894       C  0.85412325  0.51785249  0.79325524     0.98400
O1895       O  0.84015188  0.52233785  0.77319451    -0.70100
O1896       O  0.85795743  0.56353810  0.74951164    -0.73700
Al1897     Al  0.84845686  0.52977754  0.73765433     1.49000
C1898       C  0.87310089  0.57896059  0.73743516     0.93600
O1899       O  0.92797479  0.54423651  0.74667125    -0.79900
O1900       O  0.90347601  0.47202711  0.73331320    -0.73500
Al1901     Al  0.90549150  0.53376649  0.71804562     1.90100
O1902       O  0.92412056  0.50746571  0.76943205    -0.72500
O1903       O  0.85801945  0.47329455  0.75580611    -0.72400
O1904       O  0.87761596  0.51038816  0.79094338    -0.78000
O1905       O  0.83635277  0.49653937  0.72631994    -0.76200
O1906       O  0.88166343  0.51889707  0.73903444    -1.12400
O1907       O  0.84845307  0.53993872  0.70114759    -0.71600
C1908       C  0.86157293  0.52932813  0.68290834     0.99200
C1909       C  0.93548640  0.52934939  0.76516822     0.95600
Al1910     Al  0.89029321  0.49292696  0.76056018     1.55600
O1911       O  0.88947644  0.56978970  0.72054247    -0.76200
C1912       C  0.83977160  0.47542698  0.73886397     0.99700
C1913       C  0.92207718  0.47785103  0.71822651     0.94600
O1914       O  0.92672973  0.50179198  0.71246918    -0.81500
O1915       O  0.57420624  0.89985146  0.73159031    -0.81000
C1916       C  0.47267549  0.85848694  0.74255879     0.98400
O1917       O  0.49387823  0.84551428  0.74103278    -0.70100
O1918       O  0.51585546  0.85857421  0.69799425    -0.73700
Al1919     Al  0.52869004  0.85610788  0.73205715     1.49000
C1920       C  0.52583518  0.87231104  0.68014799     0.93600
O1921       O  0.50936808  0.93032790  0.70595607    -0.79900
O1922       O  0.52920119  0.91901964  0.78034974    -0.73500
Al1923     Al  0.54112761  0.91376131  0.71851758     1.90100
O1924       O  0.48975940  0.93086064  0.74472228    -0.72500
O1925       O  0.50963014  0.87105452  0.78678067    -0.72400
O1926       O  0.47282002  0.88260105  0.74831447    -0.78000
O1927       O  0.54156856  0.85045533  0.76622949    -0.76200
O1928       O  0.52356128  0.89020496  0.73771343    -1.12400
O1929       O  0.56495682  0.85920559  0.72119228    -0.71600
C1930       C  0.58057830  0.87576465  0.73138484     0.99200
C1931       C  0.49128198  0.93863876  0.72107851     0.95600
Al1932     Al  0.50212998  0.90029237  0.76313293     1.55600
O1933       O  0.54047496  0.89212523  0.68579102    -0.76200
C1934       C  0.52766826  0.85373349  0.78638158     0.99700
C1935       C  0.54083688  0.93875260  0.77070200     0.94600
O1936       O  0.54442148  0.94030788  0.74611105    -0.81500
O1937       O  0.19217837  0.85785876  0.73512528    -0.81000
C1938       C  0.28611703  0.91615407  0.72862886     0.98400
O1939       O  0.26293892  0.92501217  0.72928526    -0.70100
O1940       O  0.23667957  0.90426827  0.69206737    -0.73700
Al1941     Al  0.22952543  0.90815975  0.72735376     1.49000
C1942       C  0.22952423  0.88617073  0.67680701     0.93600
O1943       O  0.25575431  0.83342340  0.70464519    -0.79900
O1944       O  0.24868716  0.85133197  0.77887016    -0.73500
Al1945     Al  0.22478831  0.84779076  0.71993364     1.90100
O1946       O  0.28258165  0.84151134  0.73773288    -0.72500
O1947       O  0.26023827  0.90144779  0.77841488    -0.72400
O1948       O  0.29102507  0.89251536  0.73442272    -0.78000
O1949       O  0.22216244  0.91538826  0.76308914    -0.76200
O1950       O  0.24117123  0.87575517  0.73414860    -1.12400
O1951       O  0.19297153  0.89895937  0.72305617    -0.71600
C1952       C  0.18148298  0.88008385  0.73436647     0.99200
C1953       C  0.27727861  0.82955923  0.71644304     0.95600
Al1954     Al  0.26843170  0.87180893  0.75560209     1.55600
O1955       O  0.21910191  0.86502870  0.68560880    -0.76200
C1956       C  0.23970052  0.91550164  0.78075201     0.99700
C1957       C  0.23529751  0.83099225  0.77397219     0.94600
O1958       O  0.22797494  0.82548736  0.75073195    -0.81500
O1959       O  0.87324728  0.24391608  0.68965114    -0.81000
C1960       C  0.91265293  0.24820583  0.79205990     0.98400
O1961       O  0.92619381  0.24924036  0.77137190    -0.70100
O1962       O  0.91594743  0.20758220  0.74466278    -0.73700
Al1963     Al  0.91691919  0.24369668  0.73585452     1.49000
C1964       C  0.90338358  0.19035491  0.73195026     0.93600
O1965       O  0.84502434  0.21179339  0.75301017    -0.79900
O1966       O  0.85059845  0.28858853  0.73729341    -0.73500
Al1967     Al  0.86017566  0.22767117  0.72163744     1.90100
O1968       O  0.84056918  0.24980853  0.77385076    -0.72500
O1969       O  0.89769869  0.29644661  0.75876129    -0.72400
O1970       O  0.88854535  0.25436101  0.79216859    -0.78000
O1971       O  0.92180713  0.27974471  0.72715212    -0.76200
O1972       O  0.88243363  0.24724502  0.74059898    -1.12400
O1973       O  0.91486295  0.23689980  0.69872670    -0.71600
C1974       C  0.89742302  0.24608966  0.68356939     0.99200
C1975       C  0.83553469  0.22546538  0.77180592     0.95600
Al1976     Al  0.87028310  0.27053347  0.76362617     1.55600
O1977       O  0.88330389  0.19681039  0.71846904    -0.76200
C1978       C  0.91544295  0.29899193  0.74154331     0.99700
C1979       C  0.83239677  0.27782204  0.72393798     0.94600
O1980       O  0.83218730  0.25318489  0.72024850    -0.81500
O1981       O  0.14360580  0.32641383  0.76349731    -0.81000
C1982       C  0.09532525  0.22773468  0.75234631     0.98400
O1983       O  0.08378736  0.24958929  0.75098371    -0.70100
O1984       O  0.09758644  0.27267721  0.79254977    -0.73700
Al1985     Al  0.09674313  0.28366918  0.75823041     1.49000
C1986       C  0.11391481  0.27689345  0.81060675     0.93600
O1987       O  0.17229244  0.25882764  0.78426581    -0.79900
O1988       O  0.15977077  0.27708756  0.71074725    -0.73500
Al1989     Al  0.15579421  0.29147520  0.77318552     1.90100
O1990       O  0.16924546  0.23872435  0.74628886    -0.72500
O1991       O  0.11075213  0.25998147  0.70580175    -0.72400
O1992       O  0.11942934  0.22545110  0.74644682    -0.78000
O1993       O  0.09216224  0.29489689  0.72302759    -0.76200
O1994       O  0.13080744  0.27586581  0.75367302    -1.12400
O1995       O  0.10129200  0.31927021  0.76748272    -0.71600
C1996       C  0.12011618  0.33470881  0.76316824     0.99200
C1997       C  0.17900635  0.24029034  0.76899015     0.95600
Al1998     Al  0.13919383  0.25234840  0.72927001     1.55600
O1999       O  0.13536459  0.28932949  0.80617774    -0.76200
C2000       C  0.09457353  0.27879563  0.70429096     0.99700
C2001       C  0.17937635  0.28953522  0.72012238     0.94600
O2002       O  0.18075280  0.29491529  0.74448747    -0.81500
O2003       O  0.00159330  0.11771706  0.80045758    -0.81000
C2004       C  0.01317724  0.15552266  0.69605798     0.98400
O2005       O  0.01163080  0.16928155  0.71674449    -0.70100
O2006       O  0.96955011  0.15663827  0.74155336    -0.73700
Al2007     Al  0.00487946  0.16036252  0.75230051     1.49000
C2008       C  0.95244085  0.14225383  0.75220618     0.93600
O2009       O  0.98153590  0.08544295  0.73382600    -0.79900
O2010       O  0.05565104  0.10078466  0.75439629    -0.73500
Al2011     Al  0.99268733  0.10256060  0.76632986     1.90100
O2012       O  0.02116349  0.08411253  0.71676336    -0.72500
O2013       O  0.05936021  0.14611499  0.73137345    -0.72400
O2014       O  0.02031046  0.13172441  0.69693691    -0.78000
O2015       O  0.03984802  0.16771064  0.76309898    -0.76200
O2016       O  0.01141836  0.12645146  0.74860381    -1.12400
O2017       O  0.99622174  0.15898915  0.78868737    -0.71600
C2018       C  0.99884393  0.14186725  0.80642029     0.99200
C2019       C  0.99705204  0.07833545  0.71562672     0.95600
Al2020     Al  0.03699863  0.11636347  0.72678975     1.55600
O2021       O  0.95926929  0.12202258  0.76520391    -0.76200
C2022       C  0.05975858  0.16368100  0.74881036     0.99700
C2023       C  0.04718966  0.08234740  0.76858700     0.94600
O2024       O  0.02249847  0.07849442  0.77150215    -0.81500
O2025       O  0.25344408  0.13852810  0.79902072    -0.81000
C2026       C  0.25587496  0.09578762  0.69722408     0.98400
O2027       O  0.25594510  0.08366704  0.71879861    -0.70100
O2028       O  0.29613975  0.09912778  0.74534976    -0.73700
Al2029     Al  0.26029387  0.09495046  0.75381683     1.49000
C2030       C  0.31195223  0.11348764  0.75799226     0.93600
O2031       O  0.28567278  0.16979970  0.73711850    -0.79900
O2032       O  0.20953803  0.15631222  0.74695148    -0.73500
Al2033     Al  0.26971669  0.15316682  0.76752625     1.90100
O2034       O  0.24970085  0.16857900  0.71253647    -0.72500
O2035       O  0.20714073  0.10841736  0.72839145    -0.72400
O2036       O  0.24956655  0.11974592  0.69610406    -0.78000
O2037       O  0.22471193  0.08758796  0.76194659    -0.76200
O2038       O  0.25370281  0.12875713  0.74786551    -1.12400
O2039       O  0.26653408  0.09841099  0.79101125    -0.71600
C2040       C  0.25446732  0.11445608  0.80561414     0.99200
C2041       C  0.27311290  0.17642346  0.71649877     0.95600
Al2042     Al  0.23081911  0.13771599  0.72309443     1.55600
O2043       O  0.30324429  0.13292558  0.77147481    -0.76200
C2044       C  0.20563278  0.09132254  0.74637225     0.99700
C2045       C  0.21646183  0.17573631  0.76078387     0.94600
O2046       O  0.24047673  0.17865020  0.76748867    -0.81500
O2047       O  0.11022797  0.93388292  0.76178366    -0.81000
C2048       C  0.16561561  0.02914152  0.75567306     0.98400
O2049       O  0.17523122  0.00634832  0.75676309    -0.70100
O2050       O  0.15840552  0.98437832  0.79842671    -0.73700
Al2051     Al  0.15976127  0.97315743  0.76358772     1.49000
C2052       C  0.14285324  0.97609031  0.81568023     0.93600
O2053       O  0.08760456  0.99966646  0.79042371    -0.79900
O2054       O  0.09595001  0.98369879  0.71480447    -0.73500
Al2055     Al  0.10060739  0.96731311  0.77634061     1.90100
O2056       O  0.09088824  0.02184408  0.75325158    -0.72500
O2057       O  0.14681810  0.99661954  0.70980681    -0.72400
O2058       O  0.14155960  0.03264963  0.75010145    -0.78000
O2059       O  0.16460129  0.96185879  0.72844240    -0.76200
O2060       O  0.12643157  0.98282436  0.75800695    -1.12400
O2061       O  0.15168152  0.93740770  0.77247957    -0.71600
C2062       C  0.13330350  0.92480600  0.76135116     0.99200
C2063       C  0.08164235  0.01923457  0.77624157     0.95600
Al2064     Al  0.11924197  0.00678235  0.73388495     1.55600
O2065       O  0.12171605  0.96391453  0.80912680    -0.76200
C2066       C  0.16241189  0.97714706  0.70905175     0.99700
C2067       C  0.07574772  0.97243417  0.72423582     0.94600
O2068       O  0.07426338  0.96812417  0.74867752    -0.81500
O2069       O  0.38556911  0.01350469  0.69032543    -0.81000
C2070       C  0.35060528  0.00685614  0.79536600     0.98400
O2071       O  0.33672296  0.00774340  0.77477869    -0.70100
O2072       O  0.34923153  0.04988311  0.74997580    -0.73700
Al2073     Al  0.34535143  0.01460642  0.73933031     1.49000
C2074       C  0.36251742  0.06680851  0.73776392     0.93600
O2075       O  0.42225980  0.03926739  0.75330444    -0.79900
O2076       O  0.40726163  0.96451810  0.73854352    -0.73500
Al2077     Al  0.40255103  0.02611089  0.72281507     1.90100
O2078       O  0.42195225  0.00175576  0.77488856    -0.72500
O2079       O  0.36123861  0.96050744  0.76006374    -0.72400
O2080       O  0.37462925  0.00077761  0.79436136    -0.78000
O2081       O  0.33839285  0.97964240  0.72878979    -0.76200
O2082       O  0.37965565  0.00838371  0.74256908    -1.12400
O2083       O  0.34546235  0.02328081  0.70267035    -0.71600
C2084       C  0.36116330  0.01579413  0.68500249     0.99200
C2085       C  0.43077684  0.02487099  0.77196375     0.95600
Al2086     Al  0.39048874  0.98394791  0.76504111     1.55600
O2087       O  0.38190375  0.05959763  0.72336848    -0.76200
C2088       C  0.34393413  0.95952792  0.74220830     0.99700
C2089       C  0.42576427  0.97261128  0.72425726     0.94600
O2090       O  0.42777206  0.99695209  0.71864219    -0.81500
O2091       O  0.06927484  0.39184960  0.71188944    -0.81000
C2092       C  0.97066970  0.34733364  0.72567286     0.98400
O2093       O  0.99154232  0.34408610  0.71267675    -0.70100
O2094       O  0.03536779  0.35722999  0.68849001    -0.73700
Al2095     Al  0.02569962  0.35277758  0.72485924     1.49000
C2096       C  0.02361003  0.37320831  0.67345713     0.93600
O2097       O  0.00730430  0.43672765  0.71081650    -0.79900
O2098       O  0.01013458  0.42534628  0.76539285    -0.73500
Al2099     Al  0.03550992  0.41129334  0.71285110     1.90100
O2100       O  0.97342017  0.41488173  0.72611746    -0.72500
O2101       O  0.00648221  0.37630963  0.78112932    -0.72400
O2102       O  0.96911513  0.36532694  0.74301958    -0.78000
O2103       O  0.01770799  0.34084432  0.75932249    -0.76200
O2104       O  0.01767777  0.38642356  0.73038312    -1.12400
O2105       O  0.06026542  0.35814734  0.73726783    -0.71600
C2106       C  0.07688900  0.37354327  0.72721148     0.99200
C2107       C  0.98277125  0.43491111  0.71469473     0.95600
Al2108     Al  0.99184317  0.39494160  0.75207958     1.55600
O2109       O  0.02202992  0.39716553  0.68015933    -0.76200
C2110       C  0.01278248  0.35231770  0.78078868     0.99700
C2111       C  0.03332629  0.43480358  0.76307095     0.94600
O2112       O  0.04824253  0.42786107  0.74431566    -0.81500
C2113       C  0.18375991  0.05111647  0.76054693    -0.15600
C2114       C  0.18230540  0.07396036  0.74753485    -0.30800
H2115       H  0.20136386  0.04656896  0.77195802     0.13400
H2116       H  0.16567158  0.07784695  0.73457391     0.14000
C2117       C  0.33981934  0.10426462  0.75940956    -0.15600
C2118       C  0.35199475  0.09423640  0.73780230    -0.30800
H2119       H  0.34602301  0.09732246  0.77863786     0.13400
H2120       H  0.34646983  0.10181722  0.71861163     0.14000
C2121       C  0.06734201  0.06421478  0.77880512    -0.15600
C2122       C  0.06239407  0.03905554  0.78504684    -0.30800
H2123       H  0.08768779  0.06967711  0.77442201     0.13400
H2124       H  0.04248210  0.03252341  0.78960772     0.14000
C2125       C  0.19891497  0.21998647  0.77618835    -0.15600
C2126       C  0.19564027  0.19551516  0.76615625    -0.30800
H2127       H  0.21722233  0.22581069  0.78576198     0.13400
H2128       H  0.17649932  0.19074348  0.75751987     0.14000
C2129       C  0.07925363  0.20538662  0.76031022    -0.15600
C2130       C  0.08251441  0.18146866  0.75003597    -0.30800
H2131       H  0.06118957  0.21008218  0.77086283     0.13400
H2132       H  0.09964317  0.17721670  0.73790418     0.14000
C2133       C  0.11299943  0.36224757  0.75708590    -0.15600
C2134       C  0.10520384  0.36790374  0.73227774    -0.30800
H2135       H  0.10192572  0.37169740  0.77277799     0.13400
H2136       H  0.11548925  0.35849241  0.71606256     0.14000
C2137       C  0.94938093  0.32772529  0.72203475    -0.15600
C2138       C  0.93024343  0.32411715  0.73992269    -0.30800
H2139       H  0.95211597  0.31312063  0.70657702     0.13400
H2140       H  0.92759227  0.33841722  0.75565360     0.14000
C2141       C  0.91502061  0.16367644  0.73035325    -0.15600
C2142       C  0.92492455  0.15196169  0.75201924    -0.30800
H2143       H  0.92281967  0.15815965  0.71123328     0.13400
H2144       H  0.91675974  0.15700464  0.77111555     0.14000
C2145       C  0.30728933  0.93482417  0.72333974    -0.15600
C2146       C  0.32873898  0.93516321  0.73868087    -0.30800
H2147       H  0.30244039  0.95184630  0.71132769     0.13400
H2148       H  0.33263727  0.91886128  0.75197469     0.14000
C2149       C  0.15807740  0.88531138  0.75061886    -0.15600
C2150       C  0.14022522  0.90318633  0.74335881    -0.30800
H2151       H  0.16005192  0.88053118  0.77134730     0.13400
H2152       H  0.13775106  0.90745118  0.72256532     0.14000
C2153       C  0.47137096  0.95805762  0.71219994    -0.15600
C2154       C  0.44583840  0.95270856  0.71711165    -0.30800
H2155       H  0.47775685  0.97794837  0.70746993     0.13400
H2156       H  0.44074348  0.93245999  0.72216810     0.14000
C2157       C  0.93910620  0.45565704  0.71010518    -0.15600
C2158       C  0.96548185  0.45772370  0.70849427    -0.30800
H2159       H  0.93050831  0.43607894  0.71211164     0.13400
H2160       H  0.97460360  0.47709679  0.70707835     0.14000
C2161       C  0.33413007  0.53476859  0.29816051    -0.15600
C2162       C  0.33254720  0.51845917  0.31875809    -0.30800
H2163       H  0.31868786  0.54925992  0.29487071     0.13400
H2164       H  0.34779945  0.50377697  0.32200406     0.14000
C2165       C  0.31661326  0.44687472  0.23542480    -0.15600
C2166       C  0.34267631  0.44663276  0.24025098    -0.30800
H2167       H  0.30769416  0.46487296  0.22798417     0.13400
H2168       H  0.35212768  0.42916987  0.24819274     0.14000
C2169       C  0.24225155  0.43222337  0.31599192    -0.15600
C2170       C  0.26096061  0.43558765  0.33434754    -0.30800
H2171       H  0.22598703  0.44619431  0.31502783     0.13400
H2172       H  0.27730187  0.42189252  0.33625868     0.14000
C2173       C  0.45831016  0.55101556  0.30586880    -0.15600
C2174       C  0.46145056  0.54986550  0.27958864    -0.30800
H2175       H  0.43823599  0.55188924  0.31339251     0.13400
H2176       H  0.48116390  0.54872297  0.27129741     0.14000
C2177       C  0.42412129  0.51985064  0.42775175    -0.15600
C2178       C  0.44807513  0.53118678  0.42869947    -0.30800
H2179       H  0.41725415  0.50985468  0.41007019     0.13400
H2180       H  0.45408137  0.54195375  0.44628823     0.14000
C2181       C  0.30740575  0.55346542  0.45703655    -0.15600
C2182       C  0.31155271  0.55456233  0.43113799    -0.30800
H2183       H  0.28734637  0.55193921  0.46443530     0.13400
H2184       H  0.33196214  0.55458688  0.42442624     0.14000
C2185       C  0.51928780  0.44465351  0.29926474    -0.15600
C2186       C  0.52953517  0.46896385  0.29711250    -0.30800
H2187       H  0.50976844  0.43938143  0.31770571     0.13400
H2188       H  0.54014901  0.47507328  0.27962393     0.14000
C2189       C  0.45305266  0.44645444  0.21189048    -0.15600
C2190       C  0.45833161  0.47170746  0.20617951    -0.30800
H2191       H  0.43286792  0.44147104  0.21738377     0.13400
H2192       H  0.47832933  0.47808152  0.20174427     0.14000
C2193       C  0.43255230  0.30666069  0.21764877    -0.15600
C2194       C  0.43110112  0.32951481  0.23074538    -0.30800
H2195       H  0.45021462  0.30195195  0.20645142     0.13400
H2196       H  0.41330056  0.33502176  0.24128566     0.14000
C2197       C  0.30426856  0.29419143  0.20809208    -0.15600
C2198       C  0.30823679  0.32029759  0.21190030    -0.30800
H2199       H  0.28427471  0.28639932  0.20710105     0.13400
H2200       H  0.32843637  0.32737963  0.21391011     0.14000
C2201       C  0.52379093  0.43637420  0.43124313    -0.15600
C2202       C  0.50616390  0.43997449  0.41187913    -0.30800
H2203       H  0.53914332  0.45120129  0.43414934     0.13400
H2204       H  0.49022945  0.42594635  0.40852840     0.14000
C2205       C  0.45012749  0.44411965  0.51277341    -0.15600
C2206       C  0.42737613  0.44430025  0.49898231    -0.30800
H2207       H  0.45389979  0.45931767  0.52744500     0.13400
H2208       H  0.42369718  0.42940055  0.48400209     0.14000
C2209       C  0.52946770  0.30874602  0.45315271    -0.15600
C2210       C  0.51004710  0.30052710  0.43674649    -0.30800
H2211       H  0.54776186  0.29775316  0.45480595     0.13400
H2212       H  0.49175285  0.31171442  0.43683084     0.14000
C2213       C  0.49117630  0.31867504  0.32453735    -0.15600
C2214       C  0.50959658  0.32308339  0.30620596    -0.30800
H2215       H  0.47441238  0.33175309  0.32705948     0.13400
H2216       H  0.52640546  0.30981401  0.30475512     0.14000
C2217       C  0.44191776  0.22575833  0.30636052    -0.15600
C2218       C  0.41978406  0.23993172  0.30403700    -0.30800
H2219       H  0.44850945  0.21349015  0.29007812     0.13400
H2220       H  0.41274885  0.25196482  0.32028428     0.14000
C2221       C  0.23116871  0.29033952  0.29729885    -0.15600
C2222       C  0.24302716  0.31412712  0.29960588    -0.30800
H2223       H  0.21836943  0.28575971  0.28073606     0.13400
H2224       H  0.25483221  0.31768255  0.31719949     0.14000
C2225       C  0.29447222  0.20768864  0.29149127    -0.15600
C2226       C  0.31972590  0.21478011  0.28796194    -0.30800
H2227       H  0.28231017  0.20291554  0.27447711     0.13400
H2228       H  0.33119082  0.22101582  0.30499297     0.14000
C2229       C  0.26327327  0.31579907  0.40670040    -0.15600
C2230       C  0.24519984  0.31932363  0.42562226    -0.30800
H2231       H  0.27831429  0.33055475  0.40264221     0.13400
H2232       H  0.23007786  0.30431247  0.42863165     0.14000
C2233       C  0.30665441  0.44221713  0.51802321    -0.15600
C2234       C  0.30366639  0.46820263  0.52203316    -0.30800
H2235       H  0.32632301  0.43451419  0.51433611     0.13400
H2236       H  0.28411843  0.47650342  0.52487403     0.14000
C2237       C  0.23447551  0.44629078  0.43618529    -0.15600
C2238       C  0.23296640  0.47216584  0.44185581    -0.30800
H2239       H  0.23868558  0.44069071  0.41594176     0.13400
H2240       H  0.22949719  0.47893024  0.46181948     0.14000
C2241       C  0.32293360  0.22342146  0.42004211    -0.15600
C2242       C  0.34419176  0.23906004  0.42294043    -0.30800
H2243       H  0.31833204  0.20936638  0.43552871     0.13400
H2244       H  0.34963185  0.25311411  0.40778929     0.14000
C2245       C  0.32708671  0.30782823  0.50693064    -0.15600
C2246       C  0.32700099  0.32960765  0.49229753    -0.30800
H2247       H  0.31052531  0.30390211  0.51999000     0.13400
H2248       H  0.34351958  0.33456123  0.47961820     0.14000
C2249       C  0.44903324  0.32306944  0.52148547    -0.15600
C2250       C  0.45123864  0.29768157  0.52921075    -0.30800
H2251       H  0.42990680  0.33001161  0.51470049     0.13400
H2252       H  0.47012811  0.29019738  0.53600218     0.14000
C2253       C  0.45108893  0.21153769  0.43526724    -0.15600
C2254       C  0.45667149  0.21372670  0.46107682    -0.30800
H2255       H  0.43037285  0.21119694  0.42947699     0.13400
H2256       H  0.47703795  0.21516351  0.46769822     0.14000
C2257       C  0.26130767  0.08061450  0.67334006    -0.15600
C2258       C  0.27455687  0.05783342  0.67558886    -0.30800
H2259       H  0.25048010  0.08543544  0.65553000     0.13400
H2260       H  0.28584883  0.05387064  0.69337988     0.14000
C2261       C  0.34469073  0.98474166  0.65070100    -0.15600
C2262       C  0.34951259  0.00988014  0.65854874    -0.30800
H2263       H  0.35466125  0.96909097  0.66134374     0.13400
H2264       H  0.33682139  0.02514400  0.65051890     0.14000
C2265       C  0.23285527  0.89178926  0.64859096    -0.15600
C2266       C  0.25708457  0.89975984  0.64062983    -0.30800
H2267       H  0.21594410  0.90181011  0.64008001     0.13400
H2268       H  0.27414678  0.88913448  0.64803906     0.14000
C2269       C  0.18427568  0.99235768  0.66838917    -0.15600
C2270       C  0.18100432  0.97392685  0.68710805    -0.30800
H2271       H  0.16976513  0.00782922  0.66554565     0.13400
H2272       H  0.19554900  0.95828949  0.68902294     0.14000
C2273       C  0.28039343  0.06166168  0.54676099    -0.15600
C2274       C  0.28562672  0.03570671  0.54788231    -0.30800
H2275       H  0.27462447  0.07156476  0.56483322     0.13400
H2276       H  0.29011121  0.02506139  0.52987391     0.14000
C2277       C  0.26747729  0.15082147  0.40582051    -0.15600
C2278       C  0.24244338  0.15709392  0.39861518    -0.30800
H2279       H  0.28339574  0.16223838  0.39709294     0.13400
H2280       H  0.22637519  0.14851812  0.40988453     0.14000
C2281       C  0.35089523  0.14222920  0.48885136    -0.15600
C2282       C  0.36085072  0.15363281  0.51094236    -0.30800
H2283       H  0.35964583  0.14742233  0.47007442     0.13400
H2284       H  0.35311962  0.14738223  0.52984047     0.14000
C2285       C  0.17523636  0.18482873  0.49294258    -0.15600
C2286       C  0.19735128  0.18377941  0.47862073    -0.30800
H2287       H  0.16951579  0.16879705  0.50588958     0.13400
H2288       H  0.20212874  0.19975784  0.46517337     0.14000
C2289       C  0.15197062  0.24657323  0.40122904    -0.15600
C2290       C  0.17020233  0.25916001  0.38703856    -0.30800
H2291       H  0.15182114  0.22515138  0.40005450     0.13400
H2292       H  0.17172551  0.28038773  0.38996304     0.14000
C2293       C  0.15249065  0.34049985  0.48868078    -0.15600
C2294       C  0.17385403  0.35367956  0.47998006    -0.30800
H2295       H  0.14568816  0.34374382  0.50866280     0.13400
H2296       H  0.18013744  0.35028835  0.45984094     0.14000
C2297       C  0.07555483  0.27945837  0.68254432    -0.15600
C2298       C  0.07497213  0.26036938  0.66413660    -0.30800
H2299       H  0.05901379  0.29300050  0.68430660     0.13400
H2300       H  0.09159071  0.24716314  0.66133232     0.14000
C2301       C  0.90635639  0.26380971  0.66217139    -0.15600
C2302       C  0.91920973  0.25507397  0.64074447    -0.30800
H2303       H  0.90973883  0.28411241  0.66826749     0.13400
H2304       H  0.91634315  0.23481467  0.63430705     0.14000
C2305       C  0.00809615  0.36263195  0.65083626    -0.15600
C2306       C  0.01756545  0.34256755  0.63649076    -0.30800
H2307       H  0.98690293  0.36581828  0.65144323     0.13400
H2308       H  0.03886334  0.33985179  0.63708388     0.14000
C2309       C  0.99070617  0.18868955  0.67035638    -0.15600
C2310       C  0.00788154  0.16854265  0.67089790    -0.30800
H2311       H  0.97743793  0.19165074  0.68690455     0.13400
H2312       H  0.02094450  0.16460618  0.65444604     0.14000
C2313       C  0.05617337  0.28673528  0.53013893    -0.15600
C2314       C  0.05725405  0.28655872  0.55642080    -0.30800
H2315       H  0.03712119  0.28724421  0.52024221     0.13400
H2316       H  0.07635645  0.28496619  0.56608804     0.14000
C2317       C  0.04376030  0.19863401  0.46171691    -0.15600
C2318       C  0.07010742  0.19979239  0.46066977    -0.30800
H2319       H  0.03254765  0.21689035  0.46124939     0.13400
H2320       H  0.08129722  0.18159613  0.46208549     0.14000
C2321       C  0.97396725  0.18558303  0.54413549    -0.15600
C2322       C  0.97548842  0.21210619  0.54357675    -0.30800
H2323       H  0.97482124  0.17588082  0.56313822     0.13400
H2324       H  0.97557668  0.22207059  0.52468846     0.14000
C2325       C  0.99597865  0.07857416  0.39282890    -0.15600
C2326       C  0.00514410  0.09992200  0.40579233    -0.30800
H2327       H  0.97543725  0.07298237  0.39564416     0.13400
H2328       H  0.02550322  0.10614251  0.40309988     0.14000
C2329       C  0.20613559  0.03504547  0.45783689    -0.15600
C2330       C  0.20272500  0.06111403  0.46158452    -0.30800
H2331       H  0.22569544  0.02700683  0.45452495     0.13400
H2332       H  0.18268564  0.06794305  0.46520371     0.14000
C2333       C  0.20487192  0.96232243  0.56123464    -0.15600
C2334       C  0.20564298  0.96068518  0.53498491    -0.30800
H2335       H  0.18587377  0.96581692  0.57051639     0.13400
H2336       H  0.22447226  0.95804560  0.52512826     0.14000
C2337       C  0.07112336  0.07109208  0.47333782    -0.15600
C2338       C  0.09285284  0.06993030  0.48863209    -0.30800
H2339       H  0.06742741  0.05517937  0.45937158     0.13400
H2340       H  0.09761639  0.08565819  0.50240679     0.14000
C2341       C  0.10491293  0.98499090  0.40184730    -0.15600
C2342       C  0.09427333  0.00683362  0.39084998    -0.30800
H2343       H  0.09862858  0.96581893  0.39449286     0.13400
H2344       H  0.10116862  0.02607124  0.39743271     0.14000
C2345       C  0.05412421  0.96624957  0.68076712    -0.15600
C2346       C  0.05253477  0.96622446  0.70715126    -0.30800
H2347       H  0.07348561  0.96875148  0.67190549     0.13400
H2348       H  0.03324559  0.96492334  0.71639718     0.14000
C2349       C  0.98832027  0.06490008  0.69134276    -0.15600
C2350       C  0.97836770  0.04041217  0.69080824    -0.30800
H2351       H  0.99665528  0.07285568  0.67334248     0.13400
H2352       H  0.97158106  0.03146709  0.70898289     0.14000
C2353       C  0.06029227  0.98085807  0.56115381    -0.15600
C2354       C  0.08413308  0.99223570  0.56181055    -0.30800
H2355       H  0.05458174  0.96928390  0.54399441     0.13400
H2356       H  0.08971463  0.00485541  0.57823168     0.14000
C2357       C  0.98385351  0.05514096  0.56098650    -0.15600
C2358       C  0.00127111  0.07533294  0.56035480    -0.30800
H2359       H  0.97028511  0.05211652  0.54461793     0.13400
H2360       H  0.01438265  0.07929434  0.57685176     0.14000
C2361       C  0.90123172  0.01045707  0.59536139    -0.15600
C2362       C  0.90537927  0.98581174  0.60453300    -0.30800
H2363       H  0.91497326  0.02563554  0.60199566     0.13400
H2364       H  0.89363555  0.97005005  0.59581878     0.14000
C2365       C  0.92179273  0.99130184  0.43513008    -0.15600
C2366       C  0.94251316  0.00751704  0.43210971    -0.30800
H2367       H  0.91629292  0.97721107  0.41992150     0.13400
H2368       H  0.94704493  0.02198539  0.44733809     0.14000
C2369       C  0.90368427  0.08642136  0.50818445    -0.15600
C2370       C  0.91328036  0.09488998  0.48497225    -0.30800
H2371       H  0.91089417  0.09551438  0.52620891     0.13400
H2372       H  0.90571474  0.08607353  0.46695328     0.14000
C2373       C  0.09640230  0.89870186  0.51094536    -0.15600
C2374       C  0.10195788  0.90622024  0.48603933    -0.30800
H2375       H  0.10549628  0.90988886  0.52684944     0.13400
H2376       H  0.09010725  0.89769218  0.47029794     0.14000
C2377       C  0.01175006  0.88871586  0.59292501    -0.15600
C2378       C  0.98834328  0.89883766  0.60069281    -0.30800
H2379       H  0.02966614  0.89575747  0.60246390     0.13400
H2380       H  0.97058545  0.89093922  0.59149214     0.14000
C2381       C  0.93560303  0.91086855  0.50564329    -0.15600
C2382       C  0.93363777  0.93117947  0.52253600    -0.30800
H2383       H  0.91968511  0.90614147  0.49203582     0.13400
H2384       H  0.94977329  0.93514372  0.53619389     0.14000
C2385       C  0.02332750  0.92391664  0.43885269    -0.15600
C2386       C  0.00837767  0.92444257  0.41716068    -0.30800
H2387       H  0.03665465  0.94029840  0.44307415     0.13400
H2388       H  0.99541387  0.90805105  0.41212856     0.14000
C2389       C  0.28622939  0.21810566  0.69441602    -0.15600
C2390       C  0.28536580  0.19152537  0.69481341    -0.30800
H2391       H  0.28513092  0.22899098  0.71280997     0.13400
H2392       H  0.28551382  0.18117132  0.67606766     0.14000
C2393       C  0.20229134  0.28525016  0.67823435    -0.15600
C2394       C  0.20239429  0.29473077  0.70290819    -0.30800
H2395       H  0.18407260  0.27717274  0.67016782     0.13400
H2396       H  0.22078861  0.30140743  0.71178544     0.14000
C2397       C  0.18480507  0.25209951  0.57476040    -0.15600
C2398       C  0.18244159  0.27046434  0.55595893    -0.30800
H2399       H  0.16968158  0.23718761  0.57788918     0.13400
H2400       H  0.19785881  0.28529674  0.55368672     0.14000
C2401       C  0.25564341  0.36182763  0.57937415    -0.15600
C2402       C  0.24203138  0.34385832  0.59316361    -0.30800
H2403       H  0.27684134  0.36239915  0.58278578     0.13400
H2404       H  0.22113690  0.34217443  0.58834734     0.14000
C2405       C  0.34292733  0.26827924  0.59063198    -0.15600
C2406       C  0.34811419  0.24273492  0.58461545    -0.30800
H2407       H  0.35329137  0.28349255  0.57969923     0.13400
H2408       H  0.33506763  0.22781411  0.59280603     0.14000
C2409       C  0.27746460  0.18966331  0.56815515    -0.15600
C2410       C  0.26156007  0.16857453  0.56629213    -0.30800
H2411       H  0.29197656  0.19330638  0.55281221     0.13400
H2412       H  0.24717407  0.16418162  0.58149616     0.14000
C2413       C  0.94825810  0.02900699  0.28296689    -0.15600
C2414       C  0.94611372  0.02581892  0.30911570    -0.30800
H2415       H  0.96761128  0.02962195  0.27381515     0.13400
H2416       H  0.92648292  0.02489207  0.31770635     0.14000
C2417       C  0.93704634  0.94782493  0.21503167    -0.15600
C2418       C  0.96114838  0.94785011  0.20383042    -0.30800
H2419       H  0.93102163  0.93028618  0.22577693     0.13400
H2420       H  0.96828337  0.96497366  0.19318637     0.14000
C2421       C  0.03363353  0.94458043  0.28054604    -0.15600
C2422       C  0.02584296  0.94291054  0.30574983    -0.30800
H2423       H  0.04005216  0.96344766  0.27271403     0.13400
H2424       H  0.01827206  0.92411858  0.31275311     0.14000
C2425       C  0.54323758  0.19875537  0.96164804    -0.15600
C2426       C  0.56610429  0.20067899  0.97484643    -0.30800
H2427       H  0.53514377  0.21604466  0.95201459     0.13400
H2428       H  0.57266602  0.18381574  0.98627189     0.14000
C2429       C  0.38549251  0.10258232  0.00381720    -0.15600
C2430       C  0.40089458  0.11932655  0.98960303    -0.30800
H2431       H  0.36640901  0.11064183  0.00935360     0.13400
H2432       H  0.39176366  0.13820592  0.98522686     0.14000
C2433       C  0.48069836  0.05195912  0.05217580    -0.15600
C2434       C  0.49213326  0.07583708  0.05311809    -0.30800
H2435       H  0.46931144  0.04581537  0.03508663     0.13400
H2436       H  0.50302984  0.08236229  0.07040468     0.14000
C2437       C  0.41098098  0.98753645  0.09263422    -0.15600
C2438       C  0.40262551  0.01283963  0.09148059    -0.30800
H2439       H  0.40339940  0.97392909  0.07784138     0.13400
H2440       H  0.41265827  0.02723516  0.10387128     0.14000
C2441       C  0.55294056  0.96932249  0.20292064    -0.15600
C2442       C  0.55370853  0.97863161  0.17828332    -0.30800
H2443       H  0.53452137  0.96200516  0.21107865     0.13400
H2444       H  0.57201247  0.98710492  0.17094899     0.14000
C2445       C  0.47597119  0.05723958  0.17618566    -0.15600
C2446       C  0.47078985  0.05526991  0.20211377    -0.30800
H2447       H  0.48193658  0.07645177  0.16872758     0.13400
H2448       H  0.46415409  0.03673725  0.21050348     0.14000
C2449       C  0.55435450  0.06850541  0.27154933    -0.15600
C2450       C  0.55166071  0.04310292  0.27848360    -0.30800
H2451       H  0.57362906  0.07496261  0.26454918     0.13400
H2452       H  0.53297464  0.03550799  0.28572240     0.14000
C2453       C  0.39395326  0.15156558  0.22703126    -0.15600
C2454       C  0.40323131  0.14282457  0.25049311    -0.30800
H2455       H  0.40233794  0.14307046  0.20929216     0.13400
H2456       H  0.39368653  0.15001775  0.26821199     0.14000
C2457       C  0.49022345  0.15835775  0.33351915    -0.15600
C2458       C  0.51556753  0.16330169  0.34083154    -0.30800
H2459       H  0.47495248  0.17064436  0.34215255     0.13400
H2460       H  0.53115426  0.15382728  0.32963777     0.14000
C2461       C  0.47246265  0.18957398  0.04291710    -0.15600
C2462       C  0.46282546  0.21437496  0.04407088    -0.30800
H2463       H  0.48164705  0.18172798  0.06057414     0.13400
H2464       H  0.45494257  0.22342661  0.02639860     0.14000
C2465       C  0.53643184  0.28846570  0.04547026    -0.15600
C2466       C  0.56231946  0.28492182  0.04964343    -0.30800
H2467       H  0.52882949  0.29255074  0.02592556     0.13400
H2468       H  0.56879806  0.28096975  0.06968173     0.14000
C2469       C  0.47502449  0.19858101  0.17241624    -0.15600
C2470       C  0.48845814  0.17592851  0.17291891    -0.30800
H2471       H  0.46229913  0.20360447  0.18889758     0.13400
H2472       H  0.50078574  0.17004438  0.15647858     0.14000
C2473       C  0.39825848  0.24277383  0.14594680    -0.15600
C2474       C  0.40566489  0.26844211  0.14556208    -0.30800
H2475       H  0.40843697  0.22913133  0.13297048     0.13400
H2476       H  0.39819571  0.28122248  0.16104191     0.14000
C2477       C  0.51356635  0.36137686  0.15134070    -0.15600
C2478       C  0.49050725  0.35318277  0.14011384    -0.30800
H2479       H  0.53182926  0.35300869  0.14393365     0.13400
H2480       H  0.47227885  0.36231447  0.14664980     0.14000
C2481       C  0.56858660  0.27695817  0.18297405    -0.15600
C2482       C  0.56554353  0.26115784  0.16182366    -0.30800
H2483       H  0.55302159  0.29090940  0.18774679     0.13400
H2484       H  0.58095701  0.24739599  0.15625420     0.14000
C2485       C  0.58995571  0.26241424  0.35221893    -0.15600
C2486       C  0.60547998  0.24862316  0.33580039    -0.30800
H2487       H  0.59083119  0.28376131  0.35039070     0.13400
H2488       H  0.60293219  0.22731685  0.33606584     0.14000
C2489       C  0.60509102  0.34366549  0.24969122    -0.15600
C2490       C  0.58234556  0.35540262  0.25687305    -0.30800
H2491       H  0.61375534  0.34839647  0.23076675     0.13400
H2492       H  0.57421804  0.35060099  0.27603081     0.14000
C2493       C  0.57824591  0.18946466  0.24057886    -0.15600
C2494       C  0.55718934  0.18796711  0.25633482    -0.30800
H2495       H  0.58257210  0.17416691  0.22623467     0.13400
H2496       H  0.55389991  0.20317631  0.27111725     0.14000
C2497       C  0.54346275  0.95858366  0.81422481    -0.15600
C2498       C  0.54701873  0.96135103  0.78821670    -0.30800
H2499       H  0.54089074  0.93885399  0.82217665     0.13400
H2500       H  0.54896561  0.98086068  0.77964841     0.14000
C2501       C  0.45286898  0.02250001  0.81499301    -0.15600
C2502       C  0.45187587  0.03367594  0.79078247    -0.30800
H2503       H  0.43621251  0.01030201  0.82094774     0.13400
H2504       H  0.46749153  0.04676308  0.78414457     0.14000
C2505       C  0.43572634  0.01259809  0.93734727    -0.15600
C2506       C  0.45751715  0.02782109  0.93731559    -0.30800
H2507       H  0.43136613  0.99951146  0.92092085     0.13400
H2508       H  0.46128200  0.04131843  0.95347903     0.14000
C2509       C  0.51440285  0.10262067  0.89487522    -0.15600
C2510       C  0.48818008  0.10619575  0.89833652    -0.30800
H2511       H  0.52768979  0.11324888  0.90803110     0.13400
H2512       H  0.47484038  0.09301335  0.88782006     0.14000
C2513       C  0.51707780  0.88800136  0.10078339    -0.15600
C2514       C  0.50266926  0.90406282  0.11668441    -0.30800
H2515       H  0.52372385  0.86979197  0.10985850     0.13400
H2516       H  0.49885649  0.89659805  0.13633484     0.14000
C2517       C  0.51836290  0.93115057  0.94126326    -0.15600
C2518       C  0.53165329  0.95386889  0.94082007    -0.30800
H2519       H  0.50626587  0.92542583  0.92448285     0.13400
H2520       H  0.54215039  0.96022383  0.95836340     0.14000
C2521       C  0.43925035  0.92449253  0.01486122    -0.15600
C2522       C  0.43962743  0.94851268  0.02616858    -0.30800
H2523       H  0.42226616  0.91786092  0.00350930     0.13400
H2524       H  0.45660116  0.95442082  0.03785355     0.14000
C2525       C  0.56918944  0.99272836  0.06352540    -0.15600
C2526       C  0.56955345  0.98013189  0.04032721    -0.30800
H2527       H  0.58558079  0.00536102  0.06937150     0.13400
H2528       H  0.55315492  0.96726444  0.03501815     0.14000
C2529       C  0.62341277  0.00057856  0.88802617    -0.15600
C2530       C  0.60751414  0.01672337  0.87354272    -0.30800
H2531       H  0.64201599  0.99524468  0.87884150     0.13400
H2532       H  0.61534441  0.02263869  0.85456321     0.14000
C2533       C  0.59789221  0.90782400  0.00445922    -0.15600
C2534       C  0.59939276  0.91108217  0.97806032    -0.30800
H2535       H  0.60967576  0.92076959  0.01692914     0.13400
H2536       H  0.58479009  0.90111992  0.96583191     0.14000
C2537       C  0.57909436  0.06754380  0.97828593    -0.15600
C2538       C  0.55469035  0.06732384  0.96766256    -0.30800
H2539       H  0.58639781  0.08484484  0.98866010     0.13400
H2540       H  0.54798904  0.04978674  0.95759351     0.14000
C2541       C  0.49067699  0.41036863  0.59658327    -0.15600
C2542       C  0.51577975  0.40487076  0.58914511    -0.30800
H2543       H  0.47459501  0.39914357  0.58780020     0.13400
H2544       H  0.53110444  0.41766223  0.59722297     0.14000
C2545       C  0.40956456  0.50798880  0.60235447    -0.15600
C2546       C  0.39490980  0.49977588  0.58207136    -0.30800
H2547       H  0.40863969  0.52850574  0.60851577     0.13400
H2548       H  0.39590735  0.47909976  0.57641529     0.14000
C2549       C  0.50032556  0.60883195  0.40039610    -0.15600
C2550       C  0.52526226  0.59979091  0.39839575    -0.30800
H2551       H  0.48515959  0.60001355  0.38797764     0.13400
H2552       H  0.53950875  0.60614488  0.41318634     0.14000
C2553       C  0.40676367  0.60137714  0.51007615    -0.15600
C2554       C  0.41515769  0.60970280  0.48625424    -0.30800
H2555       H  0.41653502  0.60896937  0.52758460     0.13400
H2556       H  0.40506119  0.60239124  0.46879299     0.14000
C2557       C  0.50634753  0.58641775  0.55893669    -0.15600
C2558       C  0.48865118  0.56653001  0.56015958    -0.30800
H2559       H  0.52103952  0.58932164  0.57428200     0.13400
H2560       H  0.47350475  0.56485034  0.54501881     0.14000
C2561       C  0.62127855  0.40040073  0.49110874    -0.15600
C2562       C  0.60380975  0.38509477  0.50459002    -0.30800
H2563       H  0.64033702  0.39130075  0.48743408     0.13400
H2564       H  0.61140874  0.36600525  0.51062515     0.14000
C2565       C  0.58363484  0.49520199  0.55734031    -0.15600
C2566       C  0.55989959  0.48358382  0.55835387    -0.30800
H2567       H  0.59051722  0.50774581  0.57332794     0.13400
H2568       H  0.55320450  0.47159136  0.54183919     0.14000
C2569       C  0.57399487  0.57897386  0.47677503    -0.15600
C2570       C  0.57198362  0.55475170  0.46631187    -0.30800
H2571       H  0.59138110  0.58424191  0.48824817     0.13400
H2572       H  0.55446171  0.54933288  0.45512680     0.14000
C2573       C  0.60422685  0.48052951  0.39811461    -0.15600
C2574       C  0.60052252  0.50536953  0.38894463    -0.30800
H2575       H  0.58960975  0.46587292  0.39218679     0.13400
H2576       H  0.61413891  0.52095815  0.39469793     0.14000
C2577       C  0.31028152  0.93180036  0.01842518    -0.15600
C2578       C  0.30946532  0.95725459  0.02607172    -0.30800
H2579       H  0.32899737  0.92428058  0.01119308     0.13400
H2580       H  0.29076148  0.96573495  0.03211743     0.14000
C2581       C  0.23744609  0.10339104  0.82673774    -0.15600
C2582       C  0.24712581  0.09175237  0.84852616    -0.30800
H2583       H  0.21751275  0.09825354  0.82055729     0.13400
H2584       H  0.26698328  0.09662593  0.85510113     0.14000
C2585       C  0.23710349  0.93464352  0.80245936    -0.15600
C2586       C  0.25384059  0.93628559  0.82303149    -0.30800
H2587       H  0.22217379  0.94983131  0.79996170     0.13400
H2588       H  0.26810718  0.92080131  0.82684422     0.14000
C2589       C  0.31582286  0.02632833  0.82105881    -0.15600
C2590       C  0.33752748  0.01124809  0.82058960    -0.30800
H2591       H  0.31177737  0.03948200  0.80466263     0.13400
H2592       H  0.34252088  0.99841671  0.83692522     0.14000
C2593       C  0.15192756  0.97917940  0.84320674    -0.15600
C2594       C  0.15926433  0.00345293  0.85176411    -0.30800
H2595       H  0.16269947  0.96230462  0.85076051     0.13400
H2596       H  0.14841793  0.02042457  0.84455515     0.14000
C2597       C  0.22455491  0.95575727  0.94001027    -0.15600
C2598       C  0.23545090  0.93173666  0.93727060    -0.30800
H2599       H  0.21369354  0.96112331  0.95760842     0.13400
H2600       H  0.24530194  0.92687986  0.91888947     0.14000
C2601       C  0.32131676  0.03222380  0.94700581    -0.15600
C2602       C  0.29508484  0.03608839  0.94688064    -0.30800
H2603       H  0.33081091  0.02708910  0.92854622     0.13400
H2604       H  0.28495626  0.04003137  0.96527862     0.14000
C2605       C  0.97651869  0.53585299  0.19552573    -0.15600
C2606       C  0.97348836  0.56193797  0.19269910    -0.30800
H2607       H  0.97617975  0.52727263  0.21508756     0.13400
H2608       H  0.97469489  0.57016261  0.17302115     0.14000
C2609       C  0.01344646  0.40285765  0.10383229    -0.15600
C2610       C  0.00325417  0.38862302  0.08409846    -0.30800
H2611       H  0.03479879  0.40211358  0.10605667     0.13400
H2612       H  0.98201248  0.39029532  0.08133162     0.14000
C2613       C  0.07898641  0.48778533  0.07534444    -0.15600
C2614       C  0.07804571  0.47446069  0.05228444    -0.30800
H2615       H  0.09650746  0.49887625  0.08096978     0.13400
H2616       H  0.06058539  0.46276990  0.04761455     0.14000
C2617       C  0.10719607  0.40065866  0.00886031    -0.15600
C2618       C  0.11382092  0.40307089  0.98315766    -0.30800
H2619       H  0.11551573  0.41506526  0.02246160     0.13400
H2620       H  0.10284878  0.39116904  0.96902889     0.14000
C2621       C  0.22190985  0.54915058  0.95806352    -0.15600
C2622       C  0.19562231  0.54825520  0.96223802    -0.30800
H2623       H  0.23247217  0.53085654  0.95457250     0.13400
H2624       H  0.18571755  0.56660915  0.96709883     0.14000
C2625       C  0.04466050  0.55650185  0.27204513    -0.15600
C2626       C  0.07063271  0.55725895  0.26647939    -0.30800
H2627       H  0.03522928  0.53777137  0.27651332     0.13400
H2628       H  0.07930654  0.57598548  0.26067780     0.14000
C2629       C  0.07670069  0.46341729  0.19421172    -0.15600
C2630       C  0.05064551  0.45966010  0.19679540    -0.30800
H2631       H  0.08444633  0.46440022  0.17426795     0.13400
H2632       H  0.04176490  0.45901596  0.21619899     0.14000
C2633       C  0.16295478  0.41722884  0.26726003    -0.15600
C2634       C  0.16499516  0.40306981  0.24479485    -0.30800
H2635       H  0.17783635  0.41363291  0.28227883     0.13400
H2636       H  0.15201468  0.40833291  0.22860639     0.14000
C2637       C  0.17376926  0.50315493  0.34843523    -0.15600
C2638       C  0.15650986  0.51684834  0.33387149    -0.30800
H2639       H  0.17338020  0.48184934  0.34577480     0.13400
H2640       H  0.15814032  0.53821592  0.33491446     0.14000
C2641       C  0.20990008  0.46546418  0.05764931    -0.15600
C2642       C  0.20910863  0.46440164  0.03137556    -0.30800
H2643       H  0.19142605  0.46696240  0.06836628     0.13400
H2644       H  0.22762847  0.46392149  0.02059762     0.14000
C2645       C  0.29414152  0.53922879  0.03733187    -0.15600
C2646       C  0.29579245  0.56558420  0.03710951    -0.30800
H2647       H  0.29387909  0.52830134  0.01890957     0.13400
H2648       H  0.29517408  0.57618106  0.05571491     0.14000
C2649       C  0.19308287  0.48945874  0.18097376    -0.15600
C2650       C  0.19271950  0.50416208  0.15903210    -0.30800
H2651       H  0.21003398  0.47698473  0.18515480     0.13400
H2652       H  0.17571848  0.51612061  0.15386354     0.14000
C2653       C  0.24691133  0.40804805  0.15878771    -0.15600
C2654       C  0.27030078  0.41788113  0.15053607    -0.30800
H2655       H  0.22882157  0.41488080  0.14955708     0.13400
H2656       H  0.28827533  0.41097638  0.15996115     0.14000
C2657       C  0.35487270  0.49540208  0.13557507    -0.15600
C2658       C  0.36414463  0.51936162  0.14306716    -0.30800
H2659       H  0.36260882  0.47846079  0.14610451     0.13400
H2660       H  0.35654555  0.53683566  0.13336583     0.14000
C2661       C  0.27130549  0.57983311  0.15653022    -0.15600
C2662       C  0.28381793  0.58110177  0.17962145    -0.30800
H2663       H  0.25716798  0.59503478  0.15127605     0.13400
H2664       H  0.29671660  0.56498443  0.18537136     0.14000
C2665       C  0.27218193  0.61191137  0.33371627    -0.15600
C2666       C  0.24890508  0.59877246  0.33440445    -0.30800
H2667       H  0.28750911  0.60624244  0.34755499     0.13400
H2668       H  0.23495904  0.60245111  0.31855769     0.14000
C2669       C  0.35958433  0.61606270  0.24585908    -0.15600
C2670       C  0.36428902  0.60725191  0.22115891    -0.30800
H2671       H  0.37230868  0.60969832  0.26183354     0.13400
H2672       H  0.35041450  0.61348287  0.20603936     0.14000
C2673       C  0.18279619  0.57774837  0.24157871    -0.15600
C2674       C  0.20362847  0.57986796  0.25784917    -0.30800
H2675       H  0.17872453  0.59266647  0.22683594     0.13400
H2676       H  0.20650454  0.56494360  0.27293556     0.14000
C2677       C  0.95515170  0.53366101  0.80854125    -0.15600
C2678       C  0.95794412  0.53676469  0.78245633    -0.30800
H2679       H  0.93539264  0.52968588  0.81598455     0.13400
H2680       H  0.97709333  0.54100748  0.77386125     0.14000
C2681       C  0.03083585  0.45472477  0.80619152    -0.15600
C2682       C  0.04178978  0.45524373  0.78224057    -0.30800
H2683       H  0.01955017  0.43726290  0.81166111     0.13400
H2684       H  0.05312152  0.47219549  0.77565365     0.14000
C2685       C  0.11415082  0.48808863  0.89542260    -0.15600
C2686       C  0.10568746  0.51162219  0.88611938    -0.30800
H2687       H  0.10575142  0.47035729  0.88667192     0.13400
H2688       H  0.11473795  0.52942443  0.89402034     0.14000
C2689       C  0.02313537  0.43706296  0.91522880    -0.15600
C2690       C  0.03953171  0.43618783  0.93595527    -0.30800
H2691       H  0.01128213  0.42003268  0.90958268     0.13400
H2692       H  0.05162823  0.45324763  0.94099098     0.14000
C2693       C  0.93133740  0.51001166  0.93189645    -0.15600
C2694       C  0.95436384  0.52297636  0.93281282    -0.30800
H2695       H  0.92501094  0.49973708  0.91417007     0.13400
H2696       H  0.96002172  0.53381229  0.95037692     0.14000
C2697       C  0.94529930  0.44032757  0.01041095    -0.15600
C2698       C  0.94938548  0.42162062  0.99218351    -0.30800
H2699       H  0.96008651  0.44369893  0.02564161     0.13400
H2700       H  0.93464023  0.41730728  0.97720303     0.14000
C2701       C  0.90450983  0.49195812  0.08483718    -0.15600
C2702       C  0.92614578  0.49977822  0.09814665    -0.30800
H2703       H  0.89766075  0.47171714  0.08662565     0.13400
H2704       H  0.93248452  0.52018716  0.09630869     0.14000
C2705       C  0.06133751  0.55872764  0.97253204    -0.15600
C2706       C  0.08343390  0.55922467  0.98735517    -0.30800
H2707       H  0.05806887  0.54278103  0.95852568     0.13400
H2708       H  0.08755417  0.57555876  0.00064397     0.14000
C2709       C  0.01948065  0.59520570  0.89390365    -0.15600
C2710       C  0.99354214  0.59855496  0.89887504    -0.30800
H2711       H  0.03352996  0.60514207  0.90679747     0.13400
H2712       H  0.97963115  0.58586034  0.88846278     0.14000
C2713       C  0.90603234  0.60170947  0.98510059    -0.15600
C2714       C  0.89786875  0.59217821  0.00872452    -0.30800
H2715       H  0.89603563  0.59415624  0.96770187     0.13400
H2716       H  0.90677632  0.60076574  0.02623236     0.14000
C2717       C  0.98528827  0.55907721  0.05270727    -0.15600
C2718       C  0.99825774  0.56037150  0.07557718    -0.30800
H2719       H  0.97367761  0.54164100  0.04780009     0.13400
H2720       H  0.01118098  0.57701692  0.07986527     0.14000
C2721       C  0.95866423  0.29497530  0.02389480    -0.15600
C2722       C  0.96226988  0.31906622  0.01387750    -0.30800
H2723       H  0.97510692  0.28485428  0.03317315     0.13400
H2724       H  0.94611153  0.32814645  0.00311876     0.14000
C2725       C  0.09538327  0.24180931  0.83662962    -0.15600
C2726       C  0.10636491  0.26623141  0.83660446    -0.30800
H2727       H  0.09943954  0.22906223  0.81985891     0.13400
H2728       H  0.10204534  0.28016309  0.85226677     0.14000
C2729       C  0.93283846  0.25622591  0.83448420    -0.15600
C2730       C  0.92628202  0.23914938  0.81557051    -0.30800
H2731       H  0.92123513  0.27395194  0.83762534     0.13400
H2732       H  0.93878583  0.22197235  0.81262638     0.14000
C2733       C  0.02238378  0.31216605  0.80519571    -0.15600
C2734       C  0.01266218  0.33675627  0.80528522    -0.30800
H2735       H  0.03299426  0.30511729  0.78798594     0.13400
H2736       H  0.00258522  0.34446978  0.82249079     0.14000
C2737       C  0.99641436  0.15133500  0.83394388    -0.15600
C2738       C  0.01743147  0.16133596  0.84715579    -0.30800
H2739       H  0.97732368  0.16015364  0.83809954     0.13400
H2740       H  0.03693722  0.15334853  0.84336120     0.14000
C2741       C  0.97488954  0.23938188  0.94765969    -0.15600
C2742       C  0.95729551  0.22020837  0.95380821    -0.30800
H2743       H  0.97403754  0.25764682  0.95895672     0.13400
H2744       H  0.95670091  0.20157927  0.94324318     0.14000
C2745       C  0.05358190  0.30843966  0.92510104    -0.15600
C2746       C  0.05406150  0.30630920  0.95131654    -0.30800
H2747       H  0.05395219  0.32804044  0.91645651     0.13400
H2748       H  0.05338314  0.28690926  0.96033071     0.14000
C2749       C  0.36720649  0.65321122  0.00606739    -0.15600
C2750       C  0.35864410  0.64571499  0.98189969    -0.30800
H2751       H  0.35821675  0.64379854  0.02300897     0.13400
H2752       H  0.36809414  0.65462746  0.96492398     0.14000
C2753       C  0.33480918  0.81049562  0.00354066    -0.15600
C2754       C  0.31050235  0.80895265  0.01323214    -0.30800
H2755       H  0.34065887  0.82726436  0.99158475     0.13400
H2756       H  0.30406283  0.79107324  0.02310921     0.14000
C2757       C  0.44636477  0.80252198  0.02245527    -0.15600
C2758       C  0.47053648  0.80320708  0.03385384    -0.30800
H2759       H  0.43892878  0.82074053  0.01395517     0.13400
H2760       H  0.47887533  0.78585279  0.04311878     0.14000
C2761       C  0.01334110  0.65987464  0.33755227    -0.15600
C2762       C  0.98806137  0.65481652  0.33047209    -0.30800
H2763       H  0.02881314  0.64973959  0.32677056     0.13400
H2764       H  0.97288329  0.66752704  0.33865980     0.14000
C2765       C  0.02001656  0.81903863  0.29189024    -0.15600
C2766       C  0.00520804  0.81903451  0.31384491    -0.30800
H2767       H  0.03344550  0.80273310  0.28816626     0.13400
H2768       H  0.99234284  0.83547360  0.31857344     0.14000
C2769       C  0.03527556  0.80055179  0.42612059    -0.15600
C2770       C  0.03980443  0.79843059  0.45215056    -0.30800
H2771       H  0.03038784  0.81988639  0.41835193     0.13400
H2772       H  0.04362642  0.77916832  0.46062819     0.14000
C2773       C  0.19395908  0.70517620  0.25500176    -0.15600
C2774       C  0.21816051  0.70536974  0.26609115    -0.30800
H2775       H  0.18755013  0.68728096  0.24499382     0.13400
H2776       H  0.22569946  0.72333392  0.27511092     0.14000
C2777       C  0.09727435  0.85171763  0.21989509    -0.15600
C2778       C  0.10455163  0.84628057  0.24486651    -0.30800
H2779       H  0.10586714  0.83972816  0.20437230     0.13400
H2780       H  0.09333367  0.85554092  0.26056316     0.14000
C2781       C  0.10803900  0.76526295  0.32632265    -0.15600
C2782       C  0.09707822  0.74296467  0.33622418    -0.30800
H2783       H  0.10112067  0.78420651  0.33351986     0.13400
H2784       H  0.10471168  0.72411941  0.32949297     0.14000
C2785       C  0.08279864  0.68670224  0.24011176    -0.15600
C2786       C  0.06276732  0.68520244  0.25718628    -0.30800
H2787       H  0.08704416  0.67062214  0.22660502     0.13400
H2788       H  0.05924170  0.70138869  0.27083390     0.14000
C2789       C  0.06645278  0.76061936  0.15329606    -0.15600
C2790       C  0.06781740  0.77478418  0.17548899    -0.30800
H2791       H  0.08266212  0.74802637  0.14721369     0.13400
H2792       H  0.05170340  0.78789971  0.18079382     0.14000
C2793       C  0.97431831  0.67976963  0.04330235    -0.15600
C2794       C  0.96676191  0.70499802  0.04046013    -0.30800
H2795       H  0.98086849  0.67310255  0.06253458     0.13400
H2796       H  0.96129903  0.71242197  0.02119409     0.14000
C2797       C  0.98918401  0.84880499  0.12746803    -0.15600
C2798       C  0.01263895  0.85799947  0.13660687    -0.30800
H2799       H  0.97125912  0.85738973  0.13542641     0.13400
H2800       H  0.03054844  0.85031205  0.12774982     0.14000
C2801       C  0.98344821  0.69462427  0.16811788    -0.15600
C2802       C  0.99977569  0.67389104  0.17047464    -0.30800
H2803       H  0.96945217  0.69869921  0.18381136     0.13400
H2804       H  0.01345961  0.66880600  0.15485929     0.14000
C2805       C  0.03947218  0.78150416  0.03659247    -0.15600
C2806       C  0.06496166  0.77513464  0.03998337    -0.30800
H2807       H  0.03190575  0.78708448  0.01741077     0.13400
H2808       H  0.07124730  0.76973473  0.05974770     0.14000
C2809       C  0.05793346  0.67690917  0.96804177    -0.15600
C2810       C  0.05681943  0.70191458  0.95936697    -0.30800
H2811       H  0.07676234  0.66993370  0.97569717     0.13400
H2812       H  0.03882412  0.70984363  0.95088972     0.14000
C2813       C  0.15108937  0.83312963  0.99416689    -0.15600
C2814       C  0.16686800  0.85308059  0.98628721    -0.30800
H2815       H  0.14928480  0.82953758  0.01513921     0.13400
H2816       H  0.16849794  0.85738036  0.96544668     0.14000
C2817       C  0.17896569  0.67834536  0.97878324    -0.15600
C2818       C  0.20141927  0.67954927  0.96485590    -0.30800
H2819       H  0.17387505  0.66085803  0.99001345     0.13400
H2820       H  0.20562748  0.69697823  0.95312008     0.14000
C2821       C  0.21911521  0.78765469  0.18205729    -0.15600
C2822       C  0.19299892  0.78404560  0.17883743    -0.30800
H2823       H  0.22719535  0.79285950  0.20118346     0.13400
H2824       H  0.18593746  0.77939235  0.15912372     0.14000
C2825       C  0.28878768  0.70333653  0.17213505    -0.15600
C2826       C  0.29747140  0.70489040  0.19715596    -0.30800
H2827       H  0.28069599  0.68455283  0.16543838     0.13400
H2828       H  0.30620250  0.72296574  0.20475447     0.14000
C2829       C  0.20139292  0.77450726  0.05556628    -0.15600
C2830       C  0.18052691  0.75835890  0.05528286    -0.30800
H2831       H  0.20510530  0.78734974  0.03889786     0.13400
H2832       H  0.17783040  0.74413303  0.07101576     0.14000
C2833       C  0.26981104  0.85360888  0.09692581    -0.15600
C2834       C  0.24524684  0.85993446  0.08823665    -0.30800
H2835       H  0.28628318  0.86440064  0.08847271     0.13400
H2836       H  0.22890218  0.84988074  0.09779231     0.14000
C2837       C  0.35813589  0.76835533  0.09197207    -0.15600
C2838       C  0.36440138  0.74273454  0.08889699    -0.30800
H2839       H  0.36733450  0.78242272  0.07869280     0.13400
H2840       H  0.35284996  0.72831312  0.09975075     0.14000
C2841       C  0.26407256  0.67755581  0.05160744    -0.15600
C2842       C  0.27927509  0.69940675  0.05238587    -0.30800
H2843       H  0.25036748  0.67318084  0.06741845     0.13400
H2844       H  0.29364001  0.70277217  0.03686767     0.14000
C2845       C  0.25118287  0.65286169  0.88771199    -0.15600
C2846       C  0.27634555  0.64667076  0.89398970    -0.30800
H2847       H  0.23559493  0.64349905  0.89905059     0.13400
H2848       H  0.29187013  0.65842141  0.88498482     0.14000
C2849       C  0.24815399  0.81343412  0.91157551    -0.15600
C2850       C  0.23377286  0.81145811  0.93375538    -0.30800
H2851       H  0.25927325  0.83125100  0.90719165     0.13400
H2852       H  0.22167888  0.79403424  0.93720187     0.14000
C2853       C  0.32915804  0.73847605  0.91113930    -0.15600
C2854       C  0.33102373  0.72511914  0.93362420    -0.30800
H2855       H  0.34422646  0.75299336  0.90630164     0.13400
H2856       H  0.31489111  0.71214654  0.93934114     0.14000
C2857       C  0.14994051  0.74226641  0.89827877    -0.15600
C2858       C  0.17007042  0.75197157  0.88396891    -0.30800
H2859       H  0.14735432  0.72099044  0.89767651     0.13400
H2860       H  0.17310349  0.77314769  0.88581588     0.14000
C2861       C  0.22322901  0.78791726  0.79410331    -0.15600
C2862       C  0.23074802  0.81322622  0.79620189    -0.30800
H2863       H  0.21465959  0.78012115  0.77608373     0.13400
H2864       H  0.23869045  0.82007379  0.81495436     0.14000
C2865       C  0.89613583  0.76668166  0.15429164    -0.15600
C2866       C  0.90768790  0.75716323  0.13253693    -0.30800
H2867       H  0.90169794  0.78633638  0.16093272     0.13400
H2868       H  0.90260147  0.73748405  0.12564158     0.14000
C2869       C  0.90044756  0.66491861  0.22192096    -0.15600
C2870       C  0.90798463  0.65311650  0.24451684    -0.30800
H2871       H  0.91005623  0.65921270  0.20369571     0.13400
H2872       H  0.89796180  0.65819822  0.26269285     0.14000
C2873       C  0.91629420  0.82508128  0.23366884    -0.15600
C2874       C  0.93742917  0.82669964  0.21790955    -0.30800
H2875       H  0.91363067  0.83935872  0.24941594     0.13400
H2876       H  0.94036398  0.81158380  0.20298051     0.14000
C2877       C  0.91597744  0.74785508  0.30881459    -0.15600
C2878       C  0.93846150  0.73365412  0.30825162    -0.30800
H2879       H  0.91098389  0.75983824  0.32581230     0.13400
H2880       H  0.94237549  0.72124707  0.29120926     0.14000
C2881       C  0.93907680  0.79786433  0.52248631    -0.15600
C2882       C  0.96503692  0.79482505  0.52762973    -0.30800
H2883       H  0.93234563  0.81752571  0.51720022     0.13400
H2884       H  0.97283615  0.77578925  0.53346502     0.14000
C2885       C  0.93712052  0.72448541  0.43808010    -0.15600
C2886       C  0.96287852  0.71875139  0.43617044    -0.30800
H2887       H  0.92712453  0.73214026  0.42078294     0.13400
H2888       H  0.97361370  0.71252329  0.45358806     0.14000
C2889       C  0.53023665  0.80940783  0.93265180    -0.15600
C2890       C  0.53953322  0.80944230  0.95731710    -0.30800
H2891       H  0.52059712  0.82709791  0.92540458     0.13400
H2892       H  0.54797901  0.79155132  0.96546213     0.14000
C2893       C  0.45679775  0.71886489  0.92847738    -0.15600
C2894       C  0.45944571  0.71482117  0.95446543    -0.30800
H2895       H  0.43685333  0.72048826  0.92058756     0.13400
H2896       H  0.47886639  0.71275743  0.96332237     0.14000
C2897       C  0.51266088  0.83045642  0.82624940    -0.15600
C2898       C  0.53089746  0.83442973  0.80761829    -0.30800
H2899       H  0.49727564  0.84490152  0.82985303     0.13400
H2900       H  0.54631519  0.81975977  0.80489949     0.14000
C2901       C  0.44730688  0.82341478  0.72284011    -0.15600
C2902       C  0.44774757  0.84459674  0.73858591    -0.30800
H2903       H  0.46416715  0.81911806  0.71031035     0.13400
H2904       H  0.43086580  0.84988060  0.75063522     0.14000
C2905       C  0.42934319  0.75710258  0.80671664    -0.15600
C2906       C  0.45081333  0.74180524  0.80806823    -0.30800
H2907       H  0.42356532  0.76973356  0.82300522     0.13400
H2908       H  0.45576944  0.72880441  0.79174655     0.14000
C2909       C  0.32235001  0.73959778  0.78535141    -0.15600
C2910       C  0.30241105  0.72212786  0.78895605    -0.30800
H2911       H  0.32637409  0.75351787  0.80118406     0.13400
H2912       H  0.29631601  0.70902409  0.77313415     0.14000
C2913       C  0.32201445  0.81512113  0.70659521    -0.15600
C2914       C  0.29609610  0.80973229  0.70638162    -0.30800
H2915       H  0.32811608  0.83544318  0.71011546     0.13400
H2916       H  0.28904383  0.78975812  0.70293150     0.14000
C2917       C  0.60385670  0.75385057  0.85143021    -0.15600
C2918       C  0.61293100  0.77656697  0.84076037    -0.30800
H2919       H  0.61311550  0.73543250  0.84563543     0.13400
H2920       H  0.60414814  0.79497674  0.84728049     0.14000
C2921       C  0.61979761  0.84767716  0.73936942    -0.15600
C2922       C  0.60264715  0.86594365  0.74794736    -0.30800
H2923       H  0.62247349  0.84510299  0.71833430     0.13400
H2924       H  0.60028506  0.86864554  0.76901117     0.14000
C2925       C  0.57122587  0.48220708  0.68457492    -0.15600
C2926       C  0.54624764  0.47351754  0.68577659    -0.30800
H2927       H  0.57836413  0.48945367  0.66573331     0.13400
H2928       H  0.53819948  0.46544372  0.70382471     0.14000
C2929       C  0.42094422  0.66133705  0.75023024    -0.15600
C2930       C  0.40986225  0.67048508  0.72778020    -0.30800
H2931       H  0.41428470  0.66936952  0.76889703     0.13400
H2932       H  0.41571326  0.66192930  0.70908347     0.14000
C2933       C  0.52149554  0.66223182  0.81990516    -0.15600
C2934       C  0.51430083  0.67114152  0.84372224    -0.30800
H2935       H  0.53908538  0.67073319  0.81108330     0.13400
H2936       H  0.49650234  0.66347057  0.85285696     0.14000
C2937       C  0.58239012  0.67427022  0.74625096    -0.15600
C2938       C  0.58438776  0.69559538  0.76174185    -0.30800
H2939       H  0.59754826  0.67024001  0.73170685     0.13400
H2940       H  0.56845438  0.69996285  0.77536334     0.14000
C2941       C  0.47192622  0.55694044  0.70332675    -0.15600
C2942       C  0.47925012  0.55837816  0.67796478    -0.30800
H2943       H  0.46412619  0.53881492  0.71161136     0.13400
H2944       H  0.48682979  0.57723432  0.67096369     0.14000
C2945       C  0.57442474  0.55414824  0.77700593    -0.15600
C2946       C  0.54805970  0.55424067  0.77671770    -0.30800
H2947       H  0.58464025  0.57304744  0.77644698     0.13400
H2948       H  0.53729150  0.53564932  0.77651311     0.14000
C2949       C  0.57669039  0.70338950  0.45271405    -0.15600
C2950       C  0.55027633  0.70488186  0.45427992    -0.30800
H2951       H  0.58582694  0.68415278  0.45501186     0.13400
H2952       H  0.54079304  0.72404964  0.45311044     0.14000
C2953       C  0.42701058  0.77619532  0.64238699    -0.15600
C2954       C  0.41550429  0.75236639  0.64643170    -0.30800
H2955       H  0.42072876  0.79232105  0.65502195     0.13400
H2956       H  0.42402453  0.73551723  0.63631589     0.14000
C2957       C  0.53393751  0.84002183  0.64683579    -0.15600
C2958       C  0.52124920  0.86238110  0.65314415    -0.30800
H2959       H  0.55270499  0.83657661  0.65674661     0.13400
H2960       H  0.50146985  0.86518894  0.64533560     0.14000
C2961       C  0.49016848  0.68595294  0.66448146    -0.15600
C2962       C  0.50601009  0.66476964  0.66602997    -0.30800
H2963       H  0.47575908  0.68935367  0.67997656     0.13400
H2964       H  0.52035296  0.66043367  0.65077928     0.14000
C2965       C  0.58449309  0.74859649  0.66484025    -0.15600
C2966       C  0.58593467  0.76789206  0.68306795    -0.30800
H2967       H  0.59977428  0.73371963  0.66307710     0.13400
H2968       H  0.57050851  0.78277802  0.68367220     0.14000
C2969       C  0.48095085  0.72110300  0.54151582    -0.15600
C2970       C  0.47709951  0.69494680  0.54001268    -0.30800
H2971       H  0.48311369  0.73239158  0.52350533     0.13400
H2972       H  0.47562647  0.68378340  0.55815742     0.14000
C2973       C  0.57030535  0.78021789  0.55589043    -0.15600
C2974       C  0.56754487  0.78028857  0.52972871    -0.30800
H2975       H  0.58982642  0.77762188  0.56439904     0.13400
H2976       H  0.54784867  0.78181270  0.52129145     0.14000
C2977       C  0.65702159  0.74814207  0.37565979    -0.15600
C2978       C  0.65079472  0.77190303  0.38593110    -0.30800
H2979       H  0.64523303  0.73121742  0.38151250     0.13400
H2980       H  0.66177022  0.78875271  0.37848166     0.14000
C2981       C  0.80676206  0.72000772  0.42535681    -0.15600
C2982       C  0.82979550  0.73302359  0.42548214    -0.30800
H2983       H  0.80082534  0.70809262  0.44205120     0.13400
H2984       H  0.83627484  0.74448427  0.40862813     0.14000
C2985       C  0.80136386  0.71071671  0.27670170    -0.15600
C2986       C  0.80521049  0.71148456  0.30283175    -0.30800
H2987       H  0.78161811  0.70814203  0.26868940     0.13400
H2988       H  0.82532151  0.71445794  0.30990463     0.14000
C2989       C  0.85074902  0.75089267  0.59278120    -0.15600
C2990       C  0.85426179  0.72609188  0.58350996    -0.30800
H2991       H  0.86202539  0.76656410  0.58348462     0.13400
H2992       H  0.84053598  0.71111621  0.59046343     0.14000
C2993       C  0.69574125  0.77553845  0.54194686    -0.15600
C2994       C  0.69270193  0.76123367  0.56404647    -0.30800
H2995       H  0.71425718  0.78578245  0.53830098     0.13400
H2996       H  0.67391291  0.75188512  0.56855673     0.14000
C2997       C  0.71018456  0.78304494  0.67963222    -0.15600
C2998       C  0.71231387  0.78327204  0.70582937    -0.30800
H2999       H  0.69047199  0.78237037  0.67109956     0.13400
H3000       H  0.73174806  0.78308134  0.71495625     0.14000
C3001       C  0.71943041  0.49298865  0.53781267    -0.15600
C3002       C  0.70306722  0.47284840  0.53188812    -0.30800
H3003       H  0.71714394  0.51113197  0.52662136     0.13400
H3004       H  0.70420724  0.45413132  0.54213693     0.14000
C3005       C  0.84472501  0.49937986  0.64752444    -0.15600
C3006       C  0.84776129  0.52400118  0.65752074    -0.30800
H3007       H  0.85626038  0.48342672  0.65587138     0.13400
H3008       H  0.83378709  0.53897985  0.65130875     0.14000
C3009       C  0.68616251  0.51177871  0.65450317    -0.15600
C3010       C  0.68545588  0.49391278  0.67397242    -0.30800
H3011       H  0.67114319  0.52689552  0.65249247     0.13400
H3012       H  0.70053139  0.47865766  0.67481495     0.14000
C3013       C  0.76117573  0.65006508  0.39312387    -0.15600
C3014       C  0.73564840  0.65659248  0.38900907    -0.30800
H3015       H  0.77607813  0.66084252  0.38211259     0.13400
H3016       H  0.72107474  0.64865556  0.40254877     0.14000
C3017       C  0.85717434  0.63239425  0.47049655    -0.15600
C3018       C  0.87382578  0.64808426  0.48502278    -0.30800
H3019       H  0.86602365  0.61453294  0.46263999     0.13400
H3020       H  0.89376357  0.64048962  0.48721193     0.14000
C3021       C  0.70069925  0.68002677  0.48442967    -0.15600
C3022       C  0.69739095  0.69973271  0.46746851    -0.30800
H3023       H  0.68685430  0.67746355  0.50054552     0.13400
H3024       H  0.71221596  0.70334992  0.45245985     0.14000
C3025       C  0.78854789  0.67666919  0.55004427    -0.15600
C3026       C  0.77155759  0.67835724  0.56990710    -0.30800
H3027       H  0.80201097  0.69289841  0.54622914     0.13400
H3028       H  0.75672789  0.66302162  0.57262215     0.14000
C3029       C  0.70147071  0.56728642  0.46692815    -0.15600
C3030       C  0.70064134  0.54258821  0.45704603    -0.30800
H3031       H  0.68380187  0.57499270  0.47627826     0.13400
H3032       H  0.71840838  0.53399105  0.44877434     0.14000
C3033       C  0.79781496  0.55274298  0.52445681    -0.15600
C3034       C  0.80070258  0.55755367  0.55032979    -0.30800
H3035       H  0.79558313  0.53264361  0.51731242     0.13400
H3036       H  0.80227869  0.57807061  0.55653932     0.14000
C3037       C  0.65413484  0.35204662  0.00963843    -0.15600
C3038       C  0.64822874  0.34544118  0.98458296    -0.30800
H3039       H  0.64474714  0.34072245  0.02517806     0.13400
H3040       H  0.66013526  0.35429023  0.96915377     0.14000
C3041       C  0.83392096  0.32235931  0.99755871    -0.15600
C3042       C  0.80994600  0.32137397  0.00835955    -0.30800
H3043       H  0.83928854  0.33871248  0.98485832     0.13400
H3044       H  0.80432264  0.30410084  0.01971678     0.14000
C3045       C  0.79252192  0.44543425  0.02711175    -0.15600
C3046       C  0.81829469  0.44226682  0.02182307    -0.30800
H3047       H  0.78495295  0.46430427  0.03379374     0.13400
H3048       H  0.82489415  0.42279060  0.01569688     0.14000
C3049       C  0.64724705  0.99252669  0.34129329    -0.15600
C3050       C  0.65853901  0.01525840  0.34947601    -0.30800
H3051       H  0.65381301  0.97405625  0.34985394     0.13400
H3052       H  0.65130409  0.03371146  0.34140499     0.14000
C3053       C  0.81914825  0.01205305  0.32350029    -0.15600
C3054       C  0.82003324  0.02638659  0.30146746    -0.30800
H3055       H  0.83472905  0.99797484  0.32774251     0.13400
H3056       H  0.80432553  0.04028826  0.29710021     0.14000
C3057       C  0.79346189  0.02878236  0.44892908    -0.15600
C3058       C  0.81878686  0.02127243  0.45077855    -0.30800
H3059       H  0.78296656  0.03474026  0.46657686     0.13400
H3060       H  0.82850819  0.01389807  0.43321689     0.14000
C3061       C  0.69987952  0.06595038  0.95990208    -0.15600
C3062       C  0.70248792  0.03993179  0.95585430    -0.30800
H3063       H  0.68008412  0.07331523  0.96377510     0.13400
H3064       H  0.72168038  0.03141183  0.95170093     0.14000
C3065       C  0.84754355  0.15059181  0.98267174    -0.15600
C3066       C  0.85656388  0.16209861  0.00505604    -0.30800
H3067       H  0.85585699  0.15670820  0.96397874     0.13400
H3068       H  0.84883486  0.15516215  0.02372693     0.14000
C3069       C  0.67213533  0.18585728  0.99257116    -0.15600
C3070       C  0.69318430  0.18514221  0.97680871    -0.30800
H3071       H  0.66779702  0.16999088  0.00623515     0.13400
H3072       H  0.69660677  0.20092260  0.96273336     0.14000
C3073       C  0.78081056  0.19123105  0.06492140    -0.15600
C3074       C  0.76437276  0.17052325  0.06293707    -0.30800
H3075       H  0.79382350  0.19600105  0.04859626     0.13400
H3076       H  0.75163233  0.16498285  0.07918815     0.14000
C3077       C  0.70302682  0.27799849  0.17939413    -0.15600
C3078       C  0.70121205  0.28691308  0.20419896    -0.30800
H3079       H  0.68555635  0.26956070  0.17012434     0.13400
H3080       H  0.71893148  0.29337982  0.21448792     0.14000
C3081       C  0.85502969  0.26542782  0.07446223    -0.15600
C3082       C  0.84637659  0.25935449  0.09885411    -0.30800
H3083       H  0.84690250  0.28298386  0.06532705     0.13400
H3084       H  0.85370735  0.24178571  0.10856729     0.14000
C3085       C  0.74632753  0.34205071  0.10408449    -0.15600
C3086       C  0.75579664  0.35880017  0.08609530    -0.30800
H3087       H  0.72493688  0.34038910  0.10508058     0.13400
H3088       H  0.77717266  0.35937917  0.08408598     0.14000
C3089       C  0.69173303  0.25178737  0.07430518    -0.15600
C3090       C  0.68937741  0.26925209  0.05470579    -0.30800
H3091       H  0.67576789  0.23828897  0.07915281     0.13400
H3092       H  0.70531680  0.28309573  0.05065257     0.14000
C3093       C  0.78531153  0.18541088  0.19660981    -0.15600
C3094       C  0.78913527  0.21163090  0.19606295    -0.30800
H3095       H  0.78144891  0.17515602  0.17819417     0.13400
H3096       H  0.79148606  0.22232561  0.21447783     0.14000
C3097       C  0.71289106  0.20012708  0.27797852    -0.15600
C3098       C  0.68753850  0.20147507  0.26971229    -0.30800
H3099       H  0.72297250  0.21798126  0.28437412     0.13400
H3100       H  0.67847802  0.18371793  0.26169771     0.14000
C3101       C  0.84713204  0.10016658  0.24869980    -0.15600
C3102       C  0.85342224  0.09201969  0.22410872    -0.30800
H3103       H  0.85821831  0.09254214  0.26532095     0.13400
H3104       H  0.84111273  0.09948421  0.20824783     0.14000
C3105       C  0.74558564  0.09449166  0.34914446    -0.15600
C3106       C  0.76993494  0.09946880  0.33920431    -0.30800
H3107       H  0.72910484  0.10502253  0.34041568     0.13400
H3108       H  0.78575395  0.08658819  0.34575498     0.14000
C3109       C  0.68996589  0.07200471  0.26807641    -0.15600
C3110       C  0.66811503  0.07085457  0.25316455    -0.30800
H3111       H  0.69392370  0.05614840  0.28192517     0.13400
H3112       H  0.66323188  0.08658906  0.23954730     0.14000
C3113       C  0.78150733  0.06575431  0.04131856    -0.15600
C3114       C  0.78223355  0.03933677  0.04240688    -0.30800
H3115       H  0.77932170  0.07661737  0.05963363     0.13400
H3116       H  0.78315531  0.02816713  0.02415372     0.14000
C3117       C  0.69597802  0.97483063  0.05640413    -0.15600
C3118       C  0.69660440  0.96671024  0.03129132    -0.30800
H3119       H  0.67791318  0.98365738  0.06378900     0.13400
H3120       H  0.71491295  0.95918032  0.02312827     0.14000
C3121       C  0.77181573  0.06060570  0.17496912    -0.15600
C3122       C  0.75501622  0.08079924  0.17803716    -0.30800
H3123       H  0.78594914  0.05621867  0.19050687     0.13400
H3124       H  0.74092593  0.08582586  0.16270949     0.14000
C3125       C  0.84074986  0.97859956  0.13975031    -0.15600
C3126       C  0.85111861  0.00220756  0.14670365    -0.30800
H3127       H  0.84650196  0.96182477  0.15173334     0.13400
H3128       H  0.84537760  0.01969238  0.13582949     0.14000
C3129       C  0.68003685  0.98721755  0.18683968    -0.15600
C3130       C  0.68223373  0.00362944  0.16619765    -0.30800
H3131       H  0.69534468  0.97256636  0.19015765     0.13400
H3132       H  0.66700250  0.01803884  0.16191057     0.14000
C3133       C  0.71793995  0.80466102  0.28651606    -0.15600
C3134       C  0.73719886  0.79882940  0.30350715    -0.30800
H3135       H  0.70255698  0.79036671  0.28194243     0.13400
H3136       H  0.75342375  0.81282430  0.30582013     0.14000
C3137       C  0.79208974  0.81921202  0.20888730    -0.15600
C3138       C  0.79241695  0.79280413  0.20940936    -0.30800
H3139       H  0.81090129  0.82953889  0.21025338     0.13400
H3140       H  0.77387424  0.78194789  0.20892739     0.14000
C3141       C  0.72629920  0.89983157  0.14994633    -0.15600
C3142       C  0.74985957  0.90687472  0.13995632    -0.30800
H3143       H  0.70876401  0.90970942  0.14259684     0.13400
H3144       H  0.76745906  0.89678729  0.14685654     0.14000
C3145       C  0.64710567  0.89647988  0.23975175    -0.15600
C3146       C  0.64723768  0.90833627  0.26353328    -0.30800
H3147       H  0.63331330  0.90374690  0.22507741     0.13400
H3148       H  0.66291369  0.90284840  0.27711002     0.14000
C3149       C  0.80122022  0.93418857  0.23101896    -0.15600
C3150       C  0.82445315  0.93435050  0.24353239    -0.30800
H3151       H  0.79594457  0.95084406  0.21861986     0.13400
H3152       H  0.83027490  0.91812671  0.25617039     0.14000
C3153       C  0.74161984  0.93268030  0.32718724    -0.15600
C3154       C  0.72443915  0.93275098  0.30690257    -0.30800
H3155       H  0.75455751  0.91598675  0.33061730     0.13400
H3156       H  0.71109017  0.94934179  0.30444938     0.14000
C3157       C  0.74223487  0.15872265  0.89088994    -0.15600
C3158       C  0.76677648  0.15464514  0.90064339    -0.30800
H3159       H  0.72604985  0.14764314  0.89953134     0.13400
H3160       H  0.78218821  0.16812056  0.89415174     0.14000
C3161       C  0.65922685  0.23976438  0.89460066    -0.15600
C3162       C  0.64762019  0.26194726  0.90389580    -0.30800
H3163       H  0.65301463  0.22094640  0.90273491     0.13400
H3164       H  0.65315629  0.28081569  0.89544941     0.14000
C3165       C  0.81779181  0.23304783  0.92059429    -0.15600
C3166       C  0.83982057  0.24805944  0.92091303    -0.30800
H3167       H  0.81407729  0.21980003  0.93698751     0.13400
H3168       H  0.84457065  0.26104580  0.90464009     0.14000
C3169       C  0.74865608  0.31945423  0.91300458    -0.15600
C3170       C  0.73092686  0.32087203  0.93273118    -0.30800
H3171       H  0.76281107  0.33524022  0.90972072     0.13400
H3172       H  0.71650008  0.30509852  0.93503794     0.14000
C3173       C  0.79280281  0.21810845  0.79279224    -0.15600
C3174       C  0.81906343  0.21419049  0.79297612    -0.30800
H3175       H  0.78292661  0.22120589  0.77405210     0.13400
H3176       H  0.82883882  0.21168961  0.81184517     0.14000
C3177       C  0.74213607  0.84584844  0.58808484    -0.15600
C3178       C  0.76652657  0.83828082  0.59567571    -0.30800
H3179       H  0.72518963  0.83611799  0.59692034     0.13400
H3180       H  0.78349741  0.84817800  0.58709569     0.14000
C3181       C  0.65506102  0.85363662  0.50477966    -0.15600
C3182       C  0.64909560  0.85167002  0.47897802    -0.30800
H3183       H  0.64597916  0.83924221  0.51779398     0.13400
H3184       H  0.66031598  0.86406792  0.46559797     0.14000
C3185       C  0.81350560  0.82125815  0.49905493    -0.15600
C3186       C  0.81286620  0.79796166  0.51182590    -0.30800
H3187       H  0.83102484  0.82744126  0.48838912     0.13400
H3188       H  0.79562602  0.79244943  0.52330800     0.14000
C3189       C  0.73132359  0.81800793  0.43140562    -0.15600
C3190       C  0.74981958  0.81436252  0.41280847    -0.30800
H3191       H  0.71580250  0.80333353  0.43346076     0.13400
H3192       H  0.76543506  0.82880307  0.40993071     0.14000
C3193       C  0.80196855  0.92784293  0.53208731    -0.15600
C3194       C  0.80303874  0.95385990  0.53680288    -0.30800
H3195       H  0.82021219  0.91745389  0.52782599     0.13400
H3196       H  0.78476674  0.96470804  0.53956619     0.14000
C3197       C  0.72083972  0.95024429  0.46006981    -0.15600
C3198       C  0.71531802  0.95247632  0.43436259    -0.30800
H3199       H  0.72528697  0.96807217  0.47118717     0.13400
H3200       H  0.71139534  0.93462464  0.42312844     0.14000
C3201       C  0.79412717  0.53025232  0.94883620    -0.15600
C3202       C  0.82046389  0.52755044  0.94848111    -0.30800
H3203       H  0.78374683  0.53077297  0.96750890     0.13400
H3204       H  0.83043163  0.52557079  0.92967970     0.14000
C3205       C  0.72594721  0.44724515  0.92712557    -0.15600
C3206       C  0.71723558  0.44609420  0.95199610    -0.30800
H3207       H  0.73485239  0.42970635  0.91863589     0.13400
H3208       H  0.70951525  0.46377982  0.96129166     0.14000
C3209       C  0.66269208  0.51019709  0.84395062    -0.15600
C3210       C  0.65482267  0.48760539  0.83188808    -0.30800
H3211       H  0.65397348  0.52869734  0.83766584     0.13400
H3212       H  0.66319060  0.46911171  0.83865488     0.14000
C3213       C  0.81932644  0.53265569  0.82178918    -0.15600
C3214       C  0.84157257  0.51878903  0.81917737    -0.30800
H3215       H  0.81455035  0.54750795  0.80711577     0.13400
H3216       H  0.84717941  0.50411468  0.83366246     0.14000
C3217       C  0.66863168  0.39842635  0.73706543    -0.15600
C3218       C  0.65456697  0.41895325  0.72806702    -0.30800
H3219       H  0.66651749  0.39256796  0.75748149     0.13400
H3220       H  0.65671752  0.42443374  0.70753919     0.14000
C3221       C  0.76328963  0.40678863  0.65284158    -0.15600
C3222       C  0.74827316  0.42239656  0.63769827    -0.30800
H3223       H  0.78451045  0.41008014  0.65208515     0.13400
H3224       H  0.72703046  0.42114778  0.64060193     0.14000
C3225       C  0.82129334  0.43128295  0.74806459    -0.15600
C3226       C  0.82062782  0.45418884  0.73488996    -0.30800
H3227       H  0.83825169  0.42581258  0.75996590     0.13400
H3228       H  0.80385793  0.45865053  0.72224399     0.14000
C3229       C  0.75556812  0.43728861  0.82365634    -0.15600
C3230       C  0.73633576  0.43345873  0.80583102    -0.30800
H3231       H  0.77086555  0.42261382  0.82668476     0.13400
H3232       H  0.72103543  0.44827659  0.80339264     0.14000
C3233       C  0.81090103  0.31979085  0.71346946    -0.15600
C3234       C  0.80964052  0.29348356  0.71493671    -0.30800
H3235       H  0.82996960  0.32948851  0.71556281     0.13400
H3236       H  0.79056020  0.28363494  0.71374783     0.14000
C3237       C  0.72650896  0.30183691  0.77844838    -0.15600
C3238       C  0.72189509  0.30069879  0.80449274    -0.30800
H3239       H  0.72948412  0.28353791  0.76768426     0.13400
H3240       H  0.71951709  0.31906825  0.81526316     0.14000
C3241       C  0.75487905  0.60845915  0.83928772    -0.15600
C3242       C  0.76081210  0.58815694  0.85522767    -0.30800
H3243       H  0.73427618  0.61365191  0.83641829     0.13400
H3244       H  0.78148399  0.58357356  0.85864504     0.14000
C3245       C  0.86840622  0.60780341  0.74130013    -0.15600
C3246       C  0.86014248  0.61725796  0.76502491    -0.30800
H3247       H  0.86068568  0.61734996  0.72381449     0.13400
H3248       H  0.86964489  0.60915467  0.78237040     0.14000
C3249       C  0.68514246  0.57161793  0.75458805    -0.15600
C3250       C  0.70684802  0.57011913  0.76948897    -0.30800
H3251       H  0.68056817  0.58940097  0.74360270     0.13400
H3252       H  0.71052094  0.55272135  0.78141957     0.14000
C3253       C  0.78308752  0.57383079  0.69353126    -0.15600
C3254       C  0.77269970  0.57769072  0.66967378    -0.30800
H3255       H  0.79219754  0.55503070  0.69826405     0.13400
H3256       H  0.76220422  0.59583979  0.66533485     0.14000
C3257       C  0.70696377  0.69053155  0.77652429    -0.15600
C3258       C  0.70721932  0.71554435  0.78567277    -0.30800
H3259       H  0.68878975  0.68343486  0.76740268     0.13400
H3260       H  0.72448854  0.72354895  0.79561240     0.14000
C3261       C  0.79180825  0.69932591  0.70808647    -0.15600
C3262       C  0.78356786  0.69556448  0.68309680    -0.30800
H3263       H  0.79920012  0.71838198  0.71463596     0.13400
H3264       H  0.77669584  0.67594514  0.67755359     0.14000
loop_ 
_geom_bond_atom_site_label_1 
_geom_bond_atom_site_label_2 
_geom_bond_distance 
_geom_bond_site_symmetry_2 
_ccdc_geom_bond_type 
O1           C16   1.260       .  A
O1           Al9   1.942       .  S
C2           O12   1.260       .  A
C2            O3   1.255       .  A
C2         C3253   1.460       .  S
O3           Al5   1.890       .  S
O4            C6   1.252       .  A
O4           Al5   1.848       .  S
Al5          O13   1.880       .  S
Al5          O15   1.916       .  S
Al5          O14   1.794       .  S
C6           O19   1.285       .  A
C6         C3246   1.489       .  S
O7           C17   1.268       .  A
O7           Al9   1.935       .  S
O8           C21   1.257       .  A
O8          Al18   1.877       .  S
Al9          O22   1.964       .  S
Al9          O19   2.008       .  S
Al9          O14   1.786       .  S
O10          C17   1.262       .  A
O10         Al18   1.887       .  S
O11          C20   1.268       .  A
O11         Al18   1.910       .  S
O12         Al18   1.903       .  S
O13          C20   1.258       .  A
O14         Al18   1.759       .  S
O15          C16   1.257       .  A
C16        C3241   1.496       .  S
C17        C3261   1.488       .  S
C20        C3250   1.455       .  S
C21          O22   1.269       .  A
C21        C3257   1.484       .  S
O23          C38   1.266       .  A
O23         Al31   1.940       .  S
C24          O34   1.260       .  A
C24          O25   1.259       .  A
C24        C3225   1.466       .  S
O25         Al27   1.884       .  S
O26          C28   1.254       .  A
O26         Al27   1.871       .  S
Al27         O35   1.888       .  S
Al27         O37   1.916       .  S
Al27         O36   1.777       .  S
C28          O41   1.275       .  A
C28        C3221   1.484       .  S
O29          C39   1.268       .  A
O29         Al31   1.918       .  S
O30          C43   1.265       .  A
O30         Al40   1.920       .  S
Al31         O44   1.942       .  S
Al31         O41   1.986       .  S
Al31         O36   1.777       .  S
O32          C39   1.264       .  A
O32         Al40   1.900       .  S
O33          C42   1.266       .  A
O33         Al40   1.917       .  S
O34         Al40   1.908       .  S
O35          C42   1.259       .  A
O36         Al40   1.772       .  S
O37          C38   1.260       .  A
C38        C3217   1.484       .  S
C39        C3233   1.462       .  S
C42        C3230   1.464       .  S
C43          O44   1.266       .  A
C43        C3237   1.492       .  S
O45          C60   1.270       .  A
O45         Al53   1.939       .  S
C46          O56   1.254       .  A
C46          O47   1.261       .  A
C46        C3229   1.463       .  S
O47         Al49   1.900       .  S
O48          C50   1.250       .  A
O48         Al49   1.875       .  S
Al49         O57   1.863       .  S
Al49         O59   1.938       .  S
Al49         O58   1.772       .  S
C50          O63   1.272       .  A
C50        C3209   1.484       .  S
O51          C61   1.277       .  A
O51         Al53   1.933       .  S
O52          C65   1.258       .  A
O52         Al62   1.892       .  S
Al53         O66   1.937       .  S
Al53         O63   1.983       .  S
Al53         O58   1.787       .  S
O54          C61   1.270       .  A
O54         Al62   1.913       .  S
O55          C64   1.264       .  A
O55         Al62   1.923       .  S
O56         Al62   1.882       .  S
O57          C64   1.252       .  A
O58         Al62   1.766       .  S
O59          C60   1.269       .  A
C60        C3242   1.494       .  S
C61        C3205   1.473       .  S
C64        C3213   1.460       .  S
C65          O66   1.261       .  A
C65        C3201   1.481       .  S
O67          C82   1.269       .  A
O67         Al75   1.941       .  S
C68          O78   1.260       .  A
C68          O69   1.256       .  A
C68        C3185   1.469       .  S
O69         Al71   1.881       .  S
O70          C72   1.254       .  A
O70         Al71   1.879       .  S
Al71         O79   1.889       .  S
Al71         O81   1.914       .  S
Al71         O80   1.772       .  S
C72          O85   1.267       .  A
C72        C3177   1.474       .  S
O73          C83   1.268       .  A
O73         Al75   1.923       .  S
O74          C87   1.268       .  A
O74         Al84   1.936       .  S
Al75         O88   1.918       .  S
Al75         O85   1.956       .  S
Al75         O80   1.783       .  S
O76          C83   1.265       .  A
O76         Al84   1.909       .  S
O77          C86   1.267       .  A
O77         Al84   1.936       .  S
O78         Al84   1.914       .  S
O79          C86   1.260       .  A
O80         Al84   1.777       .  S
O81          C82   1.262       .  A
C82        C3181   1.482       .  S
C83        C3193   1.469       .  S
C86        C3189   1.475       .  S
C87          O88   1.261       .  A
C87        C3197   1.487       .  S
O89         C104   1.273       .  A
O89         Al97   1.957       .  S
C90         O100   1.262       .  A
C90          O91   1.257       .  A
C90        C3169   1.473       .  S
O91         Al93   1.879       .  S
O92          C94   1.255       .  A
O92         Al93   1.897       .  S
Al93        O101   1.889       .  S
Al93        O103   1.911       .  S
Al93        O102   1.776       .  S
C94         O107   1.269       .  A
C94        C3161   1.487       .  S
O95         C105   1.275       .  A
O95         Al97   1.948       .  S
O96         C109   1.264       .  A
O96        Al106   1.921       .  S
Al97        O110   1.936       .  S
Al97        O107   1.970       .  S
Al97        O102   1.782       .  S
O98         C105   1.264       .  A
O98        Al106   1.911       .  S
O99         C108   1.262       .  A
O99        Al106   1.921       .  S
O100       Al106   1.918       .  S
O101        C108   1.259       .  A
O102       Al106   1.784       .  S
O103        C104   1.261       .  A
C104       C3157   1.490       .  S
C105       C3238   1.482       .  S
C108       C3165   1.471       .  S
C109        O110   1.264       .  A
C109       C3173   1.489       .  S
O111        C126   1.267       .  A
O111       Al119   1.950       .  S
C112        O122   1.259       .  A
C112        O113   1.250       .  A
C112       C3149   1.456       .  S
O113       Al115   1.864       .  S
O114        C116   1.257       .  A
O114       Al115   1.873       .  S
Al115       O123   1.898       .  S
Al115       O125   1.895       .  S
Al115       O124   1.779       .  S
C116        O129   1.268       .  A
C116       C3141   1.470       .  S
O117        C127   1.272       .  A
O117       Al119   1.943       .  S
O118        C131   1.264       .  A
O118       Al128   1.898       .  S
Al119       O132   1.909       .  S
Al119       O129   1.954       .  S
Al119       O124   1.788       .  S
O120        C127   1.258       .  A
O120       Al128   1.881       .  S
O121        C130   1.263       .  A
O121       Al128   1.907       .  S
O122       Al128   1.915       .  S
O123        C130   1.263       .  A
O124       Al128   1.777       .  S
O125        C126   1.255       .  A
C126       C3145   1.479       .  S
C127       C3137   1.472       .  S
C130       C3154   1.468       .  S
C131        O132   1.257       .  A
C131       C3133   1.478       .  S
O133        C148   1.271       .  A
O133       Al141   1.950       .  S
C134        O144   1.258       .  A
C134        O135   1.256   1_545  A
C134       C3130   1.476       .  S
O135       Al137   1.884       .  S
O136        C138   1.256       .  A
O136       Al137   1.880       .  S
Al137       O145   1.883   1_565  S
Al137       O147   1.907       .  S
Al137       O146   1.774       .  S
C138        O151   1.267       .  A
C138       C3142   1.473       .  S
O139        C149   1.272       .  A
O139       Al141   1.932       .  S
O140        C153   1.264       .  A
O140       Al150   1.920       .  S
Al141       O154   1.921       .  S
Al141       O151   1.957       .  S
Al141       O146   1.787       .  S
O142        C149   1.264   1_545  A
O142       Al150   1.898       .  S
O143        C152   1.266       .  A
O143       Al150   1.919       .  S
O144       Al150   1.915       .  S
O145        C152   1.258       .  A
O146       Al150   1.778   1_565  S
O147        C148   1.261       .  A
C148       C3125   1.479       .  S
C149       C3117   1.472       .  S
C152       C3121   1.466       .  S
C153        O154   1.260   1_545  A
C153       C3114   1.490       .  S
O155        C170   1.274       .  A
O155       Al163   1.968       .  S
C156        O166   1.254       .  A
C156        O157   1.259       .  A
C156       C3122   1.468       .  S
O157       Al159   1.897       .  S
O158        C160   1.254       .  A
O158       Al159   1.876       .  S
Al159       O167   1.875       .  S
Al159       O169   1.919       .  S
Al159       O168   1.773       .  S
C160        O173   1.275       .  A
C160       C3101   1.491       .  S
O161        C171   1.271       .  A
O161       Al163   1.935       .  S
O162        C175   1.260       .  A
O162       Al172   1.895       .  S
Al163       O176   1.962       .  S
Al163       O173   1.990       .  S
Al163       O168   1.780       .  S
O164        C171   1.265       .  A
O164       Al172   1.908       .  S
O165        C174   1.266       .  A
O165       Al172   1.925       .  S
O166       Al172   1.893       .  S
O167        C174   1.257       .  A
O168       Al172   1.779       .  S
O169        C170   1.263       .  A
C170       C3106   1.498       .  S
C171       C3093   1.475       .  S
C174       C3109   1.463       .  S
C175        O176   1.268       .  A
C175       C3097   1.500       .  S
O177        C192   1.271       .  A
O177       Al185   1.960       .  S
C178        O188   1.255       .  A
C178        O179   1.260       .  A
C178       C3089   1.457       .  S
O179       Al181   1.892       .  S
O180        C182   1.253       .  A
O180       Al181   1.861       .  S
Al181       O189   1.886       .  S
Al181       O191   1.914       .  S
Al181       O190   1.781       .  S
C182        O195   1.274       .  A
C182       C3085   1.478       .  S
O183        C193   1.270       .  A
O183       Al185   1.930       .  S
O184        C197   1.262       .  A
O184       Al194   1.902       .  S
Al185       O198   1.936       .  S
Al185       O195   1.975       .  S
Al185       O190   1.778       .  S
O186        C193   1.265       .  A
O186       Al194   1.905       .  S
O187        C196   1.267       .  A
O187       Al194   1.919       .  S
O188       Al194   1.886       .  S
O189        C196   1.259       .  A
O190       Al194   1.768       .  S
O191        C192   1.261       .  A
C192       C3082   1.501       .  S
C193       C3077   1.472       .  S
C196       C3073   1.464       .  S
C197        O198   1.264       .  A
C197       C3094   1.488       .  S
O199        C214   1.271       .  A
O199       Al207   1.958       .  S
C200        O210   1.257       .  A
C200        O201   1.264       .  A
C200       C3074   1.464       .  S
O201       Al203   1.908   1_554  S
O202        C204   1.251       .  A
O202       Al203   1.857       .  S
Al203       O211   1.869       .  S
Al203       O213   1.923       .  S
Al203       O212   1.763       .  S
C204        O217   1.278       .  A
C204       C3065   1.482       .  S
O205        C215   1.272   1_556  A
O205       Al207   1.946       .  S
O206        C219   1.254       .  A
O206       Al216   1.867   1_556  S
Al207       O220   1.987       .  S
Al207       O217   1.997       .  S
Al207       O212   1.772       .  S
O208        C215   1.261       .  A
O208       Al216   1.904       .  S
O209        C218   1.263   1_554  A
O209       Al216   1.906       .  S
O210       Al216   1.891       .  S
O211        C218   1.254       .  A
O212       Al216   1.768   1_556  S
O213        C214   1.264       .  A
C214       C3158   1.492       .  S
C215       C3113   1.479       .  S
C218       C3070   1.449       .  S
C219        O220   1.275       .  A
C219       C3061   1.481       .  S
O221        C236   1.276       .  A
O221       Al229   1.972       .  S
C222        O232   1.258       .  A
C222        O223   1.255       .  A
C222       C3153   1.469       .  S
O223       Al225   1.875   1_565  S
O224        C226   1.256       .  A
O224       Al225   1.891       .  S
Al225       O233   1.892       .  S
Al225       O235   1.907       .  S
Al225       O234   1.779       .  S
C226        O239   1.264       .  A
C226       C3050   1.476       .  S
O227        C237   1.274       .  A
O227       Al229   1.954   1_565  S
O228        C241   1.262       .  A
O228       Al238   1.906   1_545  S
Al229       O242   1.928       .  S
Al229       O239   1.945       .  S
Al229       O234   1.783       .  S
O230        C237   1.259       .  A
O230       Al238   1.888       .  S
O231        C240   1.259   1_565  A
O231       Al238   1.896       .  S
O232       Al238   1.912       .  S
O233        C240   1.262       .  A
O234       Al238   1.786   1_545  S
O235        C236   1.260       .  A
C236       C3105   1.497       .  S
C237       C3198   1.478       .  S
C240       C3053   1.466       .  S
C241        O242   1.261       .  A
C241       C3057   1.489       .  S
O243        C258   1.259       .  A
O243       Al251   1.943       .  S
C244        O254   1.262   1_554  A
C244        O245   1.250   1_554  A
C244       C3042   1.463       .  S
O245       Al247   1.874   1_556  S
O246        C248   1.258       .  A
O246       Al247   1.865       .  S
Al247       O255   1.902   1_554  S
Al247       O257   1.894       .  S
Al247       O256   1.789       .  S
C248        O261   1.277       .  A
C248       C3086   1.480       .  S
O249        C259   1.261       .  A
O249       Al251   1.916       .  S
O250        C263   1.266       .  A
O250       Al260   1.902       .  S
Al251       O264   1.922   1_554  S
Al251       O261   1.971       .  S
Al251       O256   1.787       .  S
O252        C259   1.261   1_556  A
O252       Al260   1.894       .  S
O253        C262   1.270       .  A
O253       Al260   1.930       .  S
O254       Al260   1.930       .  S
O255        C262   1.268       .  A
O256       Al260   1.775   1_554  S
O257        C258   1.250       .  A
C258       C3037   1.480       .  S
C259       C3045   1.482       .  S
C262       C3170   1.472       .  S
C263        O264   1.264       .  A
C263       C3206   1.487       .  S
O265        C280   1.260       .  A
O265       Al273   1.948       .  S
C266        O276   1.256       .  A
C266        O267   1.251       .  A
C266       C3025   1.448       .  S
O267       Al269   1.874       .  S
O268        C270   1.257       .  A
O268       Al269   1.886       .  S
Al269       O277   1.900       .  S
Al269       O279   1.906       .  S
Al269       O278   1.793       .  S
C270        O283   1.285       .  A
C270       C3017   1.494       .  S
O271        C281   1.261       .  A
O271       Al273   1.923       .  S
O272        C285   1.256       .  A
O272       Al282   1.877       .  S
Al273       O286   1.961       .  S
Al273       O283   1.981       .  S
Al273       O278   1.780       .  S
O274        C281   1.257       .  A
O274       Al282   1.880       .  S
O275        C284   1.264       .  A
O275       Al282   1.911       .  S
O276       Al282   1.896       .  S
O277        C284   1.269       .  A
O278       Al282   1.777       .  S
O279        C280   1.253       .  A
C280       C3013   1.490       .  S
C281       C3033   1.478       .  S
C284       C3021   1.468       .  S
C285        O286   1.270       .  A
C285       C3029   1.487       .  S
O287        C302   1.267       .  A
O287       Al295   1.955       .  S
C288        O298   1.262       .  A
C288        O289   1.259       .  A
C288       C3009   1.459       .  S
O289       Al291   1.874       .  S
O290        C292   1.255       .  A
O290       Al291   1.868       .  S
Al291       O299   1.886       .  S
Al291       O301   1.902       .  S
Al291       O300   1.771       .  S
C292        O305   1.277       .  A
C292       C3222   1.483       .  S
O293        C303   1.271       .  A
O293       Al295   1.954       .  S
O294        C307   1.259       .  A
O294       Al304   1.881       .  S
Al295       O308   1.956       .  S
Al295       O305   1.987       .  S
Al295       O300   1.778       .  S
O296        C303   1.259       .  A
O296       Al304   1.890       .  S
O297        C306   1.262       .  A
O297       Al304   1.917       .  S
O298       Al304   1.915       .  S
O299        C306   1.262       .  A
O300       Al304   1.771       .  S
O301        C302   1.256       .  A
C302       C3005   1.489       .  S
C303       C3001   1.477       .  S
C306       C3254   1.466       .  S
C307        O308   1.271       .  A
C307       C3034   1.473       .  S
O309        C324   1.267       .  A
O309       Al317   1.967       .  S
C310        O320   1.256       .  A
C310        O311   1.254       .  A
C310       C2994   1.466       .  S
O311       Al313   1.887       .  S
O312        C314   1.259       .  A
O312       Al313   1.861       .  S
Al313       O321   1.886       .  S
Al313       O323   1.899       .  S
Al313       O322   1.780       .  S
C314        O327   1.277       .  A
C314       C3178   1.473       .  S
O315        C325   1.267       .  A
O315       Al317   1.937       .  S
O316        C329   1.257       .  A
O316       Al326   1.875       .  S
Al317       O330   1.948       .  S
Al317       O327   1.973       .  S
Al317       O322   1.784       .  S
O318        C325   1.253       .  A
O318       Al326   1.865       .  S
O319        C328   1.263       .  A
O319       Al326   1.904       .  S
O320       Al326   1.909       .  S
O321        C328   1.266       .  A
O322       Al326   1.773       .  S
O323        C324   1.252       .  A
C324       C2989   1.493       .  S
C325       C2997   1.468       .  S
C328       C3026   1.461       .  S
C329        O330   1.266       .  A
C329       C3262   1.478       .  S
O331        C346   1.272       .  A
O331       Al339   1.955       .  S
C332        O342   1.260       .  A
C332        O333   1.263       .  A
C332       C3190   1.478       .  S
O333       Al335   1.910       .  S
O334        C336   1.255       .  A
O334       Al335   1.863       .  S
Al335       O343   1.881       .  S
Al335       O345   1.922       .  S
Al335       O344   1.770       .  S
C336        O349   1.274       .  A
C336       C2977   1.478       .  S
O337        C347   1.273       .  A
O337       Al339   1.941       .  S
O338        C351   1.255       .  A
O338       Al348   1.885       .  S
Al339       O352   1.959       .  S
Al339       O349   1.977       .  S
Al339       O344   1.777       .  S
O340        C347   1.260       .  A
O340       Al348   1.881       .  S
O341        C350   1.259       .  A
O341       Al348   1.869       .  S
O342       Al348   1.908       .  S
O343        C350   1.256       .  A
O344       Al348   1.762       .  S
O345        C346   1.262       .  A
C346       C3014   1.490       .  S
C347       C3134   1.468       .  S
C350       C2981   1.445       .  S
C351        O352   1.268       .  A
C351       C2986   1.479       .  S
O353        C368   1.269       .  A
O353       Al361   1.960       .  S
C354        O364   1.260       .  A
C354        O355   1.258       .  A
C354       C2965   1.470       .  S
O355       Al357   1.892       .  S
O356        C358   1.256       .  A
O356       Al357   1.875       .  S
Al357       O365   1.890       .  S
Al357       O367   1.908       .  S
Al357       O366   1.773       .  S
C358        O371   1.273       .  A
C358       C2957   1.485       .  S
O359        C369   1.268       .  A
O359       Al361   1.930       .  S
O360        C373   1.264       .  A
O360       Al370   1.903       .  S
Al361       O374   1.933       .  S
Al361       O371   1.976       .  S
Al361       O366   1.779       .  S
O362        C369   1.258       .  A
O362       Al370   1.889       .  S
O363        C372   1.264       .  A
O363       Al370   1.913       .  S
O364       Al370   1.915       .  S
O365        C372   1.261       .  A
O366       Al370   1.779       .  S
O367        C368   1.258       .  A
C368       C2953   1.492       .  S
C369       C2973   1.468       .  S
C372       C2961   1.463       .  S
C373        O374   1.265       .  A
C373       C2969   1.482       .  S
O375        C390   1.266       .  A
O375       Al383   1.942       .  S
C376        O386   1.262       .  A
C376        O377   1.250       .  A
C376       C3022   1.461       .  S
O377       Al379   1.866       .  S
O378        C380   1.255       .  A
O378       Al379   1.877       .  S
Al379       O387   1.909       .  S
Al379       O389   1.902       .  S
Al379       O388   1.789       .  S
C380        O393   1.265       .  A
C380       C2978   1.476       .  S
O381        C391   1.271       .  A
O381       Al383   1.937       .  S
O382        C395   1.262       .  A
O382       Al392   1.917       .  S
Al383       O396   1.900       .  S
Al383       O393   1.949       .  S
Al383       O388   1.793       .  S
O384        C391   1.259       .  A
O384       Al392   1.885       .  S
O385        C394   1.258       .  A
O385       Al392   1.880       .  S
O386       Al392   1.914       .  S
O387        C394   1.263       .  A
O388       Al392   1.779       .  S
O389        C390   1.257       .  A
C390       C3182   1.481       .  S
C391       C2949   1.473       .  S
C394       C2993   1.468       .  S
C395        O396   1.255       .  A
C395       C2974   1.478       .  S
O397        C412   1.267       .  A
O397       Al405   1.949       .  S
C398        O408   1.259       .  A
C398        O399   1.257       .  A
C398       C2962   1.465       .  S
O399       Al401   1.873       .  S
O400        C402   1.258       .  A
O400       Al401   1.897       .  S
Al401       O409   1.896       .  S
Al401       O411   1.911       .  S
Al401       O410   1.772       .  S
C402        O415   1.272       .  A
C402       C2929   1.485       .  S
O403        C413   1.273       .  A
O403       Al405   1.935       .  S
O404        C417   1.262       .  A
O404       Al414   1.901       .  S
Al405       O418   1.920       .  S
Al405       O415   1.969       .  S
Al405       O410   1.789       .  S
O406        C413   1.267       .  A
O406       Al414   1.894       .  S
O407        C416   1.263       .  A
O407       Al414   1.926       .  S
O408       Al414   1.911       .  S
O409        C416   1.263       .  A
O410       Al414   1.771       .  S
O411        C412   1.259       .  A
C412       C2933   1.482       .  S
C413       C2941   1.479       .  S
C416       C2937   1.480       .  S
C417        O418   1.259       .  A
C417       C2946   1.475       .  S
O419        C434   1.263       .  A
O419       Al427   1.931       .  S
C420        O430   1.254       .  A
C420        O421   1.262       .  A
C420       C3249   1.455       .  S
O421       Al423   1.902       .  S
O422        C424   1.257       .  A
O422       Al423   1.874       .  S
Al423       O431   1.888       .  S
Al423       O433   1.927       .  S
Al423       O432   1.770       .  S
C424        O437   1.278       .  A
C424       C3210   1.483       .  S
O425        C435   1.266       .  A
O425       Al427   1.920       .  S
O426        C439   1.250       .  A
O426       Al436   1.851       .  S
Al427       O440   1.968       .  S
Al427       O437   1.986       .  S
Al427       O432   1.779       .  S
O428        C435   1.260       .  A
O428       Al436   1.889       .  S
O429        C438   1.262       .  A
O429       Al436   1.905       .  S
O430       Al436   1.879       .  S
O431        C438   1.260       .  A
O432       Al436   1.768       .  S
O433        C434   1.261       .  A
C434       C3218   1.482       .  S
C435       C2945   1.463       .  S
C438       C3010   1.457       .  S
C439        O440   1.270       .  A
C439       C2925   1.471       .  S
O441        C456   1.263       .  A
O441       Al449   1.940       .  S
C442        O452   1.264       .  A
C442        O443   1.255       .  A
C442       C2938   1.466       .  S
O443       Al445   1.881       .  S
O444        C446   1.255       .  A
O444       Al445   1.874       .  S
Al445       O453   1.896       .  S
Al445       O455   1.918       .  S
Al445       O454   1.781       .  S
C446        O459   1.273       .  A
C446       C2918   1.480       .  S
O447        C457   1.272       .  A
O447       Al449   1.937       .  S
O448        C461   1.265       .  A
O448       Al458   1.912       .  S
Al449       O462   1.915       .  S
Al449       O459   1.972       .  S
Al449       O454   1.790       .  S
O450        C457   1.266       .  A
O450       Al458   1.897       .  S
O451        C460   1.264       .  A
O451       Al458   1.919       .  S
O452       Al458   1.924       .  S
O453        C460   1.262       .  A
O454       Al458   1.773       .  S
O455        C456   1.258       .  A
C456       C2921   1.486       .  S
C457       C3258   1.491       .  S
C460       C2966   1.469       .  S
C461        O462   1.259       .  A
C461       C2998   1.480       .  S
O463        C478   1.274       .  A
O463       Al471   1.966       .  S
C464        O474   1.257       .  A
C464        O465   1.261       .  A
C464       C2905   1.457       .  S
O465       Al467   1.886       .  S
O466        C468   1.252       .  A
O466       Al467   1.866       .  S
Al467       O475   1.877       .  S
Al467       O477   1.914       .  S
Al467       O476   1.763       .  S
C468        O481   1.277       .  A
C468       C2930   1.483       .  S
O469        C479   1.276       .  A
O469       Al471   1.966       .  S
O470        C483   1.254       .  A
O470       Al480   1.873       .  S
Al471       O484   1.975       .  S
Al471       O481   1.994       .  S
Al471       O476   1.775       .  S
O472        C479   1.265       .  A
O472       Al480   1.905       .  S
O473        C482   1.263       .  A
O473       Al480   1.910       .  S
O474       Al480   1.890       .  S
O475        C482   1.256       .  A
O476       Al480   1.764       .  S
O477        C478   1.262       .  A
C478       C2954   1.492       .  S
C479       C2909   1.488       .  S
C482       C2901   1.455       .  S
C483        O484   1.273       .  A
C483       C2913   1.476       .  S
O485        C500   1.265       .  A
O485       Al493   1.926       .  S
C486        O496   1.259       .  A
C486        O487   1.266       .  A
C486       C2897   1.472       .  S
O487       Al489   1.913       .  S
O488        C490   1.253       .  A
O488       Al489   1.871       .  S
Al489       O497   1.878       .  S
Al489       O499   1.933       .  S
Al489       O498   1.767       .  S
C490        O503   1.274       .  A
C490       C2917   1.482       .  S
O491        C501   1.273       .  A
O491       Al493   1.936       .  S
O492        C505   1.256       .  A
O492       Al502   1.880       .  S
Al493       O506   1.961       .  S
Al493       O503   1.981       .  S
Al493       O498   1.783       .  S
O494        C501   1.263       .  A
O494       Al502   1.897       .  S
O495        C504   1.260       .  A
O495       Al502   1.898       .  S
O496       Al502   1.897       .  S
O497        C504   1.254       .  A
O498       Al502   1.766       .  S
O499        C500   1.268       .  A
C500       C2934   1.492       .  S
C501       C2889   1.471       .  S
C504       C2906   1.454       .  S
C505        O506   1.269       .  A
C505       C2893   1.476       .  S
O507        C522   1.272       .  A
O507       Al515   1.965       .  S
C508        O518   1.255       .  A
C508        O509   1.259       .  A
C508       C2982   1.446       .  S
O509       Al511   1.870       .  S
O510        C512   1.255       .  A
O510       Al511   1.907       .  S
Al511       O519   1.908       .  S
Al511       O521   1.911       .  S
Al511       O520   1.786       .  S
C512        O525   1.278       .  A
C512       C3018   1.501       .  S
O513        C523   1.271       .  A
O513       Al515   1.949       .  S
O514        C527   1.258       .  A
O514       Al524   1.886       .  S
Al515       O528   1.974       .  S
Al515       O525   1.972       .  S
Al515       O520   1.769       .  S
O516        C523   1.259       .  A
O516       Al524   1.893       .  S
O517        C526   1.261       .  A
O517       Al524   1.896       .  S
O518       Al524   1.879       .  S
O519        C526   1.264       .  A
O520       Al524   1.770       .  S
O521        C522   1.261       .  A
C522       C2990   1.495       .  S
C523       C2885   1.478       .  S
C526       C3186   1.468       .  S
C527        O528   1.271       .  A
C527       C2881   1.487       .  S
O529        C544   1.264       .  A
O529       Al537   1.939       .  S
C530        O540   1.262       .  A
C530        O531   1.255       .  A
C530       C2877   1.479       .  S
O531       Al533   1.881       .  S
O532        C534   1.257       .  A
O532       Al533   1.883       .  S
Al533       O541   1.886       .  S
Al533       O543   1.915       .  S
Al533       O542   1.776       .  S
C534        O547   1.271       .  A
C534       C2869   1.478       .  S
O535        C545   1.270       .  A
O535       Al537   1.921       .  S
O536        C549   1.263       .  A
O536       Al546   1.918       .  S
Al537       O550   1.917       .  S
Al537       O547   1.967       .  S
Al537       O542   1.792       .  S
O538        C545   1.269       .  A
O538       Al546   1.909       .  S
O539        C548   1.266       .  A
O539       Al546   1.934       .  S
O540       Al546   1.926       .  S
O541        C548   1.263       .  A
O542       Al546   1.775       .  S
O543        C544   1.259       .  A
C544       C2865   1.478       .  S
C545       C2985   1.477       .  S
C548       C2873   1.481       .  S
C549        O550   1.258       .  A
C549       C3138   1.485       .  S
O551        C566   1.263       .  A
O551       Al559   1.946       .  S
C552        O562   1.259       .  A
C552        O553   1.256       .  A
C552       C2849   1.464       .  S
O553       Al555   1.882       .  S
O554        C556   1.255       .  A
O554       Al555   1.869       .  S
Al555       O563   1.909       .  S
Al555       O565   1.895       .  S
Al555       O564   1.788       .  S
C556        O569   1.279       .  A
C556       C2858   1.496       .  S
O557        C567   1.259       .  A
O557       Al559   1.913       .  S
O558        C571   1.263       .  A
O558       Al568   1.885       .  S
Al559       O572   1.970       .  S
Al559       O569   1.990       .  S
Al559       O564   1.792       .  S
O560        C567   1.257       .  A
O560       Al568   1.873       .  S
O561        C570   1.261       .  A
O561       Al568   1.911       .  S
O562       Al568   1.912       .  S
O563        C570   1.268       .  A
O564       Al568   1.775       .  S
O565        C566   1.254       .  A
C566       C2845   1.485       .  S
C567       C2861   1.472       .  S
C570       C2853   1.476       .  S
C571        O572   1.273       .  A
C571       C2910   1.504       .  S
O573        C588   1.258       .  A
O573       Al581   1.934       .  S
C574        O584   1.259       .  A
C574        O575   1.253       .  A
C574       C2829   1.457       .  S
O575       Al577   1.883       .  S
O576        C578   1.254       .  A
O576       Al577   1.846       .  S
Al577       O585   1.892       .  S
Al577       O587   1.904       .  S
Al577       O586   1.785       .  S
C578        O591   1.282       .  A
C578       C2833   1.484       .  S
O579        C589   1.261       .  A
O579       Al581   1.915       .  S
O580        C593   1.257       .  A
O580       Al590   1.871       .  S
Al581       O594   1.956       .  S
Al581       O591   1.995       .  S
Al581       O586   1.788       .  S
O582        C589   1.264       .  A
O582       Al590   1.912       .  S
O583        C592   1.271       .  A
O583       Al590   1.940       .  S
O584       Al590   1.905       .  S
O585        C592   1.264       .  A
O586       Al590   1.771       .  S
O587        C588   1.253       .  A
C588       C2837   1.479       .  S
C589       C2821   1.489       .  S
C592       C2842   1.472       .  S
C593        O594   1.270       .  A
C593       C2825   1.480       .  S
O595        C610   1.259       .  A
O595       Al603   1.934       .  S
C596        O606   1.259       .  A
C596        O597   1.264       .  A
C596       C2817   1.466       .  S
O597       Al599   1.906       .  S
O598        C600   1.252       .  A
O598       Al599   1.847       .  S
Al599       O607   1.889   1_556  S
Al599       O609   1.922       .  S
Al599       O608   1.790       .  S
C600        O613   1.284       .  A
C600       C2857   1.491       .  S
O601        C611   1.263       .  A
O601       Al603   1.923       .  S
O602        C615   1.256       .  A
O602       Al612   1.866       .  S
Al603       O616   1.969       .  S
Al603       O613   2.003       .  S
Al603       O608   1.784       .  S
O604        C611   1.260       .  A
O604       Al612   1.891   1_556  S
O605        C614   1.262       .  A
O605       Al612   1.916       .  S
O606       Al612   1.898   1_556  S
O607        C614   1.263       .  A
O608       Al612   1.770   1_556  S
O609        C610   1.256       .  A
C610       C2813   1.491       .  S
C611       C2810   1.485       .  S
C614       C2830   1.466       .  S
C615        O616   1.273   1_554  A
C615       C2806   1.478       .  S
O617        C632   1.263       .  A
O617       Al625   1.923       .  S
C618        O628   1.256       .  A
C618        O619   1.261       .  A
C618       C2789   1.460       .  S
O619       Al621   1.894   1_455  S
O620        C622   1.255       .  A
O620       Al621   1.872       .  S
Al621       O629   1.887       .  S
Al621       O631   1.929       .  S
Al621       O630   1.773       .  S
C622        O635   1.275       .  A
C622       C2797   1.482       .  S
O623        C633   1.268       .  A
O623       Al625   1.920   1_455  S
O624        C637   1.259       .  A
O624       Al634   1.881   1_655  S
Al625       O638   1.946       .  S
Al625       O635   1.982       .  S
Al625       O630   1.786       .  S
O626        C633   1.270       .  A
O626       Al634   1.918       .  S
O627        C636   1.267   1_455  A
O627       Al634   1.940       .  S
O628       Al634   1.887       .  S
O629        C636   1.259       .  A
O630       Al634   1.767   1_655  S
O631        C632   1.264       .  A
C632       C2866   1.485       .  S
C633       C2805   1.482       .  S
C636       C2801   1.472       .  S
C637        O638   1.265       .  A
C637       C2794   1.485       .  S
O639        C654   1.272       .  A
O639       Al647   1.956       .  S
C640        O650   1.254       .  A
C640        O641   1.261       .  A
C640       C2785   1.460       .  S
O641       Al643   1.895       .  S
O642        C644   1.251       .  A
O642       Al643   1.863       .  S
Al643       O651   1.873       .  S
Al643       O653   1.922       .  S
Al643       O652   1.768       .  S
C644        O657   1.281       .  A
C644       C2781   1.487       .  S
O645        C655   1.275       .  A
O645       Al647   1.950       .  S
O646        C659   1.253       .  A
O646       Al656   1.873       .  S
Al647       O660   1.983       .  S
Al647       O657   2.011       .  S
Al647       O652   1.778       .  S
O648        C655   1.265       .  A
O648       Al656   1.906       .  S
O649        C658   1.266       .  A
O649       Al656   1.918       .  S
O650       Al656   1.887       .  S
O651        C658   1.256       .  A
O652       Al656   1.762       .  S
O653        C654   1.262       .  A
C654       C2778   1.488       .  S
C655       C2773   1.484       .  S
C658       C2790   1.457       .  S
C659        O660   1.273       .  A
C659       C2822   1.484       .  S
O661        C676   1.269       .  A
O661       Al669   1.951       .  S
C662        O672   1.259   1_455  A
C662        O663   1.254       .  A
C662       C2766   1.470       .  S
O663       Al665   1.870       .  S
O664        C666   1.258       .  A
O664       Al665   1.902       .  S
Al665       O673   1.895   1_455  S
Al665       O675   1.912       .  S
Al665       O674   1.779       .  S
C666        O679   1.272       .  A
C666       C2782   1.489       .  S
O667        C677   1.272       .  A
O667       Al669   1.938       .  S
O668        C681   1.264       .  A
O668       Al678   1.912       .  S
Al669       O682   1.925       .  S
Al669       O679   1.972       .  S
Al669       O674   1.787       .  S
O670        C677   1.265       .  A
O670       Al678   1.904   1_455  S
O671        C680   1.266       .  A
O671       Al678   1.931       .  S
O672       Al678   1.916       .  S
O673        C680   1.262       .  A
O674       Al678   1.781   1_455  S
O675        C676   1.260       .  A
C676       C2761   1.487       .  S
C677       C2769   1.478       .  S
C680       C2878   1.476       .  S
C681        O682   1.260   1_655  A
C681       C2886   1.491       .  S
O683        C698   1.256       .  A
O683       Al691   1.933       .  S
C684        O694   1.263       .  A
C684        O685   1.251       .  A
C684       C2854   1.466       .  S
O685       Al687   1.881   1_556  S
O686        C688   1.257       .  A
O686       Al687   1.846       .  S
Al687       O695   1.888       .  S
Al687       O697   1.890       .  S
Al687       O696   1.786       .  S
C688        O701   1.283       .  A
C688       C2749   1.478       .  S
O689        C699   1.261       .  A
O689       Al691   1.926   1_556  S
O690        C703   1.260   1_556  A
O690       Al700   1.876       .  S
Al691       O704   1.951       .  S
Al691       O701   1.990       .  S
Al691       O696   1.792       .  S
O692        C699   1.255       .  A
O692       Al700   1.866       .  S
O693        C702   1.262   1_556  A
O693       Al700   1.901       .  S
O694       Al700   1.929       .  S
O695        C702   1.267       .  A
O696       Al700   1.774   1_554  S
O697        C698   1.248       .  A
C698       C2838   1.477       .  S
C699       C2894   1.481       .  S
C702       C2753   1.456       .  S
C703        O704   1.268       .  A
C703       C2757   1.480       .  S
O705        C720   1.274       .  A
O705       Al713   1.992       .  S
C706        O716   1.265       .  A
C706        O707   1.253       .  A
C706       C2733   1.469       .  S
O707       Al709   1.872       .  S
O708        C710   1.271       .  A
O708       Al709   1.939       .  S
Al709       O717   1.909   1_455  S
Al709       O719   1.881       .  S
Al709       O718   1.757       .  S
C710        O723   1.263       .  A
C710       C2725   1.475       .  S
O711        C721   1.270       .  A
O711       Al713   1.961       .  S
O712        C725   1.273       .  A
O712       Al722   1.932       .  S
Al713       O726   1.938       .  S
Al713       O723   1.913       .  S
Al713       O718   1.786       .  S
O714        C721   1.252       .  A
O714       Al722   1.873   1_455  S
O715        C724   1.256       .  A
O715       Al722   1.887       .  S
O716       Al722   1.938   1_455  S
O717        C724   1.267       .  A
O718       Al722   1.766   1_455  S
O719        C720   1.254       .  A
C720       C2738   1.493       .  S
C721       C2745   1.469       .  S
C724       C2729   1.468       .  S
C725        O726   1.272   1_655  A
C725       C2741   1.479       .  S
O727        C742   1.268       .  A
O727       Al735   1.960       .  S
C728        O738   1.262       .  A
C728        O729   1.257       .  A
C728       C3166   1.476       .  S
O729       Al731   1.876   1_556  S
O730        C732   1.258   1_556  A
O730       Al731   1.896   1_556  S
Al731       O739   1.897       .  S
Al731       O741   1.921       .  S
Al731       O740   1.777   1_554  S
C732        O745   1.270       .  A
C732       C3066   1.484       .  S
O733        C743   1.276       .  A
O733       Al735   1.957   1_556  S
O734        C747   1.264       .  A
O734       Al744   1.906   1_554  S
Al735       O748   1.915       .  S
Al735       O745   1.964       .  S
Al735       O740   1.792   1_554  S
O736        C743   1.264       .  A
O736       Al744   1.880       .  S
O737        C746   1.259       .  A
O737       Al744   1.909       .  S
O738       Al744   1.923       .  S
O739        C746   1.265   1_554  A
O740       Al744   1.776       .  S
O741        C742   1.260       .  A
C742       C3081   1.493       .  S
C743       C2742   1.490       .  S
C746       C3041   1.476       .  S
C747        O748   1.258       .  A
C747       C2721   1.483       .  S
O749        C764   1.261       .  A
O749       Al757   1.939       .  S
C750        O760   1.258       .  A
C750        O751   1.254       .  A
C750       C2717   1.456       .  S
O751       Al753   1.884   1_554  S
O752        C754   1.256       .  A
O752       Al753   1.865       .  S
Al753       O761   1.898   1_655  S
Al753       O763   1.909       .  S
Al753       O762   1.781       .  S
C754        O767   1.282       .  A
C754       C2713   1.489       .  S
O755        C765   1.264       .  A
O755       Al757   1.922   1_554  S
O756        C769   1.255       .  A
O756       Al766   1.868   1_556  S
Al757       O770   1.959   1_655  S
Al757       O767   1.996       .  S
Al757       O762   1.784       .  S
O758        C765   1.258   1_455  A
O758       Al766   1.883       .  S
O759        C768   1.265       .  A
O759       Al766   1.909   1_556  S
O760       Al766   1.900   1_655  S
O761        C768   1.264       .  A
O762       Al766   1.768   1_656  S
O763        C764   1.255       .  A
C764       C2710   1.482       .  S
C765       C2793   1.470       .  S
C768       C2705   1.463       .  S
C769        O770   1.270       .  A
C769       C2809   1.478       .  S
O771        C786   1.265       .  A
O771       Al779   1.934       .  S
C772        O782   1.255       .  A
C772        O773   1.262       .  A
C772       C2693   1.456       .  S
O773       Al775   1.894   1_556  S
O774        C776   1.252       .  A
O774       Al775   1.865       .  S
Al775       O783   1.882       .  S
Al775       O785   1.926       .  S
Al775       O784   1.771       .  S
C776        O789   1.279       .  A
C776       C2714   1.489       .  S
O777        C787   1.267       .  A
O777       Al779   1.915   1_556  S
O778        C791   1.256       .  A
O778       Al788   1.877   1_554  S
Al779       O792   1.967       .  S
Al779       O789   1.997       .  S
Al779       O784   1.779       .  S
O780        C787   1.266       .  A
O780       Al788   1.911       .  S
O781        C790   1.267   1_556  A
O781       Al788   1.930       .  S
O782       Al788   1.883       .  S
O783        C790   1.258       .  A
O784       Al788   1.762   1_554  S
O785        C786   1.264       .  A
C786       C2701   1.490       .  S
C787       C3202   1.466       .  S
C790       C2697   1.464       .  S
C791        O792   1.271       .  A
C791       C3046   1.478       .  S
O793        C808   1.268       .  A
O793       Al801   1.940       .  S
C794        O804   1.255       .  A
C794        O795   1.261       .  A
C794       C2689   1.456       .  S
O795       Al797   1.894       .  S
O796        C798   1.250       .  A
O796       Al797   1.854       .  S
Al797       O805   1.880   1_455  S
Al797       O807   1.918       .  S
Al797       O806   1.771       .  S
C798        O811   1.278       .  A
C798       C2686   1.481       .  S
O799        C809   1.271       .  A
O799       Al801   1.936       .  S
O800        C813   1.256       .  A
O800       Al810   1.877       .  S
Al801       O814   1.974       .  S
Al801       O811   1.996       .  S
Al801       O806   1.777       .  S
O802        C809   1.262       .  A
O802       Al810   1.889   1_455  S
O803        C812   1.263       .  A
O803       Al810   1.901       .  S
O804       Al810   1.884   1_455  S
O805        C812   1.256       .  A
O806       Al810   1.760   1_455  S
O807        C808   1.262       .  A
C808       C2709   1.482       .  S
C809       C2681   1.468       .  S
C812       C2694   1.454       .  S
C813        O814   1.272   1_655  A
C813       C2677   1.480       .  S
O815        C830   1.264       .  A
O815       Al823   1.958       .  S
C816        O826   1.260       .  A
C816        O817   1.251       .  A
C816       C2662   1.463       .  S
O817       Al819   1.876       .  S
O818        C820   1.256       .  A
O818       Al819   1.850       .  S
Al819       O827   1.879       .  S
Al819       O829   1.894       .  S
Al819       O828   1.784       .  S
C820        O833   1.280       .  A
C820       C2669   1.483       .  S
O821        C831   1.267       .  A
O821       Al823   1.932       .  S
O822        C835   1.265       .  A
O822       Al832   1.901       .  S
Al823       O836   1.942       .  S
Al823       O833   1.991       .  S
Al823       O828   1.785       .  S
O824        C831   1.262       .  A
O824       Al832   1.890       .  S
O825        C834   1.271       .  A
O825       Al832   1.941       .  S
O826       Al832   1.926       .  S
O827        C834   1.262       .  A
O828       Al832   1.772       .  S
O829        C830   1.251       .  A
C830       C2665   1.486       .  S
C831       C2826   1.488       .  S
C834       C2674   1.466       .  S
C835        O836   1.267       .  A
C835       C2774   1.498       .  S
O837        C852   1.269       .  A
O837       Al845   1.944       .  S
C838        O848   1.260       .  A
C838        O839   1.260       .  A
C838       C2650   1.462       .  S
O839       Al841   1.882       .  S
O840        C842   1.257       .  A
O840       Al841   1.896       .  S
Al841       O849   1.898       .  S
Al841       O851   1.901       .  S
Al841       O850   1.768       .  S
C842        O855   1.265       .  A
C842       C2654   1.480       .  S
O843        C853   1.267       .  A
O843       Al845   1.932       .  S
O844        C857   1.262       .  A
O844       Al854   1.888       .  S
Al845       O858   1.935       .  S
Al845       O855   1.946       .  S
Al845       O850   1.785       .  S
O846        C853   1.259       .  A
O846       Al854   1.895       .  S
O847        C856   1.256       .  A
O847       Al854   1.905       .  S
O848       Al854   1.902       .  S
O849        C856   1.262       .  A
O850       Al854   1.782       .  S
O851        C852   1.261       .  A
C852       C2657   1.481       .  S
C853       C2641   1.470       .  S
C856       C2661   1.475       .  S
C857        O858   1.265       .  A
C857       C2645   1.474       .  S
O859        C874   1.264       .  A
O859       Al867   1.947       .  S
C860        O870   1.260       .  A
C860        O861   1.261       .  A
C860       C2673   1.470       .  S
O861       Al863   1.898       .  S
O862        C864   1.254       .  A
O862       Al863   1.858       .  S
Al863       O871   1.890       .  S
Al863       O873   1.910       .  S
Al863       O872   1.775       .  S
C864        O877   1.278       .  A
C864       C2638   1.480       .  S
O865        C875   1.264       .  A
O865       Al867   1.932       .  S
O866        C879   1.255       .  A
O866       Al876   1.864       .  S
Al867       O880   1.962       .  S
Al867       O877   1.984       .  S
Al867       O872   1.787       .  S
O868        C875   1.259       .  A
O868       Al876   1.897       .  S
O869        C878   1.263       .  A
O869       Al876   1.908       .  S
O870       Al876   1.908       .  S
O871        C878   1.261       .  A
O872       Al876   1.778       .  S
O873        C874   1.258       .  A
C874       C2633   1.488       .  S
C875       C2626   1.477       .  S
C878       C2649   1.460       .  S
C879        O880   1.271       .  A
C879       C2629   1.475       .  S
O881        C896   1.270       .  A
O881       Al889   1.949       .  S
C882        O892   1.258       .  A
C882        O883   1.254       .  A
C882       C2841   1.476       .  S
O883       Al885   1.880   1_554  S
O884        C886   1.257       .  A
O884       Al885   1.890       .  S
Al885       O893   1.888       .  S
Al885       O895   1.915       .  S
Al885       O894   1.779       .  S
C886        O899   1.271       .  A
C886       C2750   1.485       .  S
O887        C897   1.267   1_556  A
O887       Al889   1.912       .  S
O888        C901   1.261       .  A
O888       Al898   1.915       .  S
Al889       O902   1.940       .  S
Al889       O899   1.970       .  S
Al889       O894   1.787       .  S
O890        C897   1.265       .  A
O890       Al898   1.898   1_554  S
O891        C900   1.266       .  A
O891       Al898   1.910       .  S
O892       Al898   1.916   1_554  S
O893        C900   1.261       .  A
O894       Al898   1.779       .  S
O895        C896   1.261       .  A
C896       C2846   1.485       .  S
C897       C2646   1.460       .  S
C900       C2818   1.465       .  S
C901        O902   1.262       .  A
C901       C2621   1.501       .  S
O903        C918   1.271       .  A
O903       Al911   1.960       .  S
C904        O914   1.260       .  A
C904        O905   1.254       .  A
C904       C2706   1.466       .  S
O905       Al907   1.862       .  S
O906        C908   1.256       .  A
O906       Al907   1.895       .  S
Al907       O915   1.902   1_556  S
Al907       O917   1.911       .  S
Al907       O916   1.781       .  S
C908        O921   1.268       .  A
C908       C2685   1.486       .  S
O909        C919   1.277       .  A
O909       Al911   1.955       .  S
O910        C923   1.264       .  A
O910       Al920   1.920       .  S
Al911       O924   1.906       .  S
Al911       O921   1.963       .  S
Al911       O916   1.785       .  S
O912        C919   1.265       .  A
O912       Al920   1.910   1_556  S
O913        C922   1.264       .  A
O913       Al920   1.921       .  S
O914       Al920   1.912   1_556  S
O915        C922   1.263       .  A
O916       Al920   1.779   1_556  S
O917        C918   1.260       .  A
C918       C2618   1.492       .  S
C919       C2622   1.488       .  S
C922       C2614   1.478       .  S
C923        O924   1.257   1_554  A
C923       C2642   1.481       .  S
O925        C940   1.259       .  A
O925       Al933   1.939       .  S
C926        O936   1.265       .  A
C926        O927   1.257       .  A
C926       C2613   1.481       .  S
O927       Al929   1.891   1_455  S
O928        C930   1.256       .  A
O928       Al929   1.856   1_455  S
Al929       O937   1.882       .  S
Al929       O939   1.915       .  S
Al929       O938   1.787   1_655  S
C930        O943   1.276   1_455  A
C930       C2609   1.475       .  S
O931        C941   1.265       .  A
O931       Al933   1.916   1_455  S
O932        C945   1.264   1_455  A
O932       Al942   1.911       .  S
Al933       O946   1.916       .  S
Al933       O943   1.970       .  S
Al933       O938   1.791   1_655  S
O934        C941   1.264       .  A
O934       Al942   1.894       .  S
O935        C944   1.264       .  A
O935       Al942   1.918       .  S
O936       Al942   1.933       .  S
O937        C944   1.264   1_655  A
O938       Al942   1.770       .  S
O939        C940   1.255       .  A
C940       C2702   1.485       .  S
C941       C2630   1.476       .  S
C944       C2718   1.466   1_455  S
C945        O946   1.260       .  A
C945       C2605   1.480       .  S
O947        C962   1.270       .  A
O947       Al955   1.951       .  S
C948        O958   1.259       .  A
C948        O949   1.260   1_455  A
C948       C2802   1.476   1_455  S
O949       Al951   1.898       .  S
O950        C952   1.254       .  A
O950       Al951   1.869       .  S
Al951       O959   1.877   1_655  S
Al951       O961   1.921       .  S
Al951       O960   1.772       .  S
C952        O965   1.274       .  A
C952       C2870   1.479       .  S
O953        C963   1.272       .  A
O953       Al955   1.933       .  S
O954        C967   1.261       .  A
O954       Al964   1.896       .  S
Al955       O968   1.948   1_655  S
Al955       O965   1.981       .  S
Al955       O960   1.782       .  S
O956        C963   1.262   1_455  A
O956       Al964   1.896       .  S
O957        C966   1.265       .  A
O957       Al964   1.910       .  S
O958       Al964   1.910       .  S
O959        C966   1.257       .  A
O960       Al964   1.771   1_655  S
O961        C962   1.262       .  A
C962       C2762   1.487       .  S
C963       C2606   1.469       .  S
C966       C2786   1.458       .  S
C967        O968   1.265       .  A
C967       C2625   1.492       .  S
O969        C984   1.266       .  A
O969       Al977   1.947       .  S
C970        O980   1.259       .  A
C970        O971   1.256       .  A
C970       C2586   1.477       .  S
O971       Al973   1.889   1_565  S
O972        C974   1.258   1_565  A
O972       Al973   1.884   1_565  S
Al973       O981   1.886       .  S
Al973       O983   1.925       .  S
Al973       O982   1.780       .  S
C974        O987   1.275       .  A
C974       C2594   1.485       .  S
O975        C985   1.269       .  A
O975       Al977   1.922   1_565  S
O976        C989   1.261       .  A
O976       Al986   1.905   1_545  S
Al977       O990   1.929       .  S
Al977       O987   1.978       .  S
Al977       O982   1.785       .  S
O978        C985   1.266       .  A
O978       Al986   1.888       .  S
O979        C988   1.266       .  A
O979       Al986   1.909   1_545  S
O980       Al986   1.918       .  S
O981        C988   1.261       .  A
O982       Al986   1.772   1_545  S
O983        C984   1.260       .  A
C984       C2582   1.494       .  S
C985       C2597   1.474       .  S
C988       C2589   1.460       .  S
C989        O990   1.261       .  A
C989       C2602   1.491       .  S
O991       C1006   1.263       .  A
O991       Al999   1.959       .  S
C992       O1002   1.260   1_554  A
C992        O993   1.252       .  A
C992       C2754   1.452       .  S
O993       Al995   1.873       .  S
O994        C996   1.258       .  A
O994       Al995   1.870       .  S
Al995      O1003   1.910   1_554  S
Al995      O1005   1.902       .  S
Al995      O1004   1.795       .  S
C996       O1009   1.278       .  A
C996       C2834   1.486       .  S
O997       C1007   1.273       .  A
O997       Al999   1.960       .  S
O998       C1011   1.257       .  A
O998      Al1008   1.883       .  S
Al999      O1012   1.919   1_554  S
Al999      O1009   1.981       .  S
Al999      O1004   1.784       .  S
O1000      C1007   1.258   1_556  A
O1000     Al1008   1.885       .  S
O1001      C1010   1.264       .  A
O1001     Al1008   1.899       .  S
O1002     Al1008   1.898       .  S
O1003      C1010   1.265       .  A
O1004     Al1008   1.764   1_554  S
O1005      C1006   1.252       .  A
C1006      C2814   1.495   1_554  S
C1007      C2577   1.490       .  S
C1010      C2850   1.466       .  S
C1011      O1012   1.262       .  A
C1011      C2598   1.469       .  S
O1013      C1028   1.275       .  A
O1013     Al1021   1.961       .  S
C1014      O1024   1.269       .  A
C1014      O1015   1.258       .  A
C1014      C2570   1.473       .  S
O1015     Al1017   1.885       .  S
O1016      C1018   1.264       .  A
O1016     Al1017   1.919       .  S
Al1017     O1025   1.889       .  S
Al1017     O1027   1.906       .  S
Al1017     O1026   1.788       .  S
C1018      O1031   1.267       .  A
C1018      C2573   1.486       .  S
O1019      C1029   1.263       .  A
O1019     Al1021   1.944       .  S
O1020      C1033   1.270       .  A
O1020     Al1030   1.918       .  S
Al1021     O1034   1.933       .  S
Al1021     O1031   1.948       .  S
Al1021     O1026   1.776       .  S
O1022      C1029   1.260       .  A
O1022     Al1030   1.900       .  S
O1023      C1032   1.256       .  A
O1023     Al1030   1.899       .  S
O1024     Al1030   1.931       .  S
O1025      C1032   1.261       .  A
O1026     Al1030   1.775       .  S
O1027      C1028   1.257       .  A
C1028      C2561   1.490       .  S
C1029      C3030   1.494       .  S
C1032      C2565   1.472       .  S
C1033      O1034   1.269       .  A
C1033      C3002   1.489       .  S
O1035      C1050   1.266       .  A
O1035     Al1043   1.932       .  S
C1036      O1046   1.262       .  A
C1036      O1037   1.256       .  A
C1036      C2557   1.472       .  S
O1037     Al1039   1.874       .  S
O1038      C1040   1.255       .  A
O1038     Al1039   1.888       .  S
Al1039     O1047   1.900       .  S
Al1039     O1049   1.911       .  S
Al1039     O1048   1.776       .  S
C1040      O1053   1.267       .  A
C1040      C2554   1.480       .  S
O1041      C1051   1.268       .  A
O1041     Al1043   1.923       .  S
O1042      C1055   1.263       .  A
O1042     Al1052   1.911       .  S
Al1043     O1056   1.931       .  S
Al1043     O1053   1.957       .  S
Al1043     O1048   1.787       .  S
O1044      C1051   1.264       .  A
O1044     Al1052   1.909       .  S
O1045      C1054   1.261       .  A
O1045     Al1052   1.908       .  S
O1046     Al1052   1.921       .  S
O1047      C1054   1.263       .  A
O1048     Al1052   1.776       .  S
O1049      C1050   1.262       .  A
C1050      C2549   1.476       .  S
C1051      C2970   1.471       .  S
C1054      C2569   1.473       .  S
C1055      O1056   1.262       .  A
C1055      C2950   1.486       .  S
O1057      C1072   1.252       .  A
O1057     Al1065   1.905       .  S
C1058      O1068   1.263       .  A
C1058      O1059   1.258       .  A
C1058      C2566   1.457       .  S
O1059     Al1061   1.888       .  S
O1060      C1062   1.254       .  A
O1060     Al1061   1.843       .  S
Al1061     O1069   1.899       .  S
Al1061     O1071   1.897       .  S
Al1061     O1070   1.782       .  S
C1062      O1075   1.282       .  A
C1062      C2541   1.487       .  S
O1063      C1073   1.260       .  A
O1063     Al1065   1.909       .  S
O1064      C1077   1.259       .  A
O1064     Al1074   1.870       .  S
Al1065     O1078   1.958       .  S
Al1065     O1075   1.998       .  S
Al1065     O1070   1.790       .  S
O1066      C1073   1.263       .  A
O1066     Al1074   1.894       .  S
O1067      C1076   1.266       .  A
O1067     Al1074   1.927       .  S
O1068     Al1074   1.911       .  S
O1069      C1076   1.263       .  A
O1070     Al1074   1.768       .  S
O1071      C1072   1.254       .  A
C1072      C2545   1.469       .  S
C1073      C2926   1.481       .  S
C1076      C2558   1.469       .  S
C1077      O1078   1.271       .  A
C1077      C2942   1.475       .  S
O1079      C1094   1.263       .  A
O1079     Al1087   1.945       .  S
C1080      O1090   1.258       .  A
C1080      O1081   1.256       .  A
C1080      C2537   1.482       .  S
O1081     Al1083   1.887   1_545  S
O1082      C1084   1.256   1_545  A
O1082     Al1083   1.892   1_545  S
Al1083     O1091   1.878       .  S
Al1083     O1093   1.925       .  S
Al1083     O1092   1.789       .  S
C1084      O1097   1.278       .  A
C1084      C2529   1.494   1_565  S
O1085      C1095   1.268       .  A
O1085     Al1087   1.917   1_545  S
O1086      C1099   1.260       .  A
O1086     Al1096   1.902   1_565  S
Al1087     O1100   1.916       .  S
Al1087     O1097   1.968       .  S
Al1087     O1092   1.786       .  S
O1088      C1095   1.271       .  A
O1088     Al1096   1.923   1_556  S
O1089      C1098   1.272   1_545  A
O1089     Al1096   1.942       .  S
O1090     Al1096   1.917   1_556  S
O1091      C1098   1.260   1_556  A
O1092     Al1096   1.771   1_566  S
O1093      C1094   1.260       .  A
C1094      C2534   1.493       .  S
C1095      C3062   1.485       .  S
C1098      C2526   1.469       .  S
C1099      O1100   1.257   1_554  A
C1099      C3118   1.486       .  S
O1101      C1116   1.265       .  A
O1101     Al1109   1.948       .  S
C1102      O1112   1.259       .  A
C1102      O1103   1.256       .  A
C1102      C2521   1.472       .  S
O1103     Al1105   1.874       .  S
O1104      C1106   1.260       .  A
O1104     Al1105   1.914       .  S
Al1105     O1113   1.908   1_554  S
Al1105     O1115   1.916       .  S
Al1105     O1114   1.794       .  S
C1106      O1119   1.273       .  A
C1106      C2513   1.494       .  S
O1107      C1117   1.273       .  A
O1107     Al1109   1.951       .  S
O1108      C1121   1.262       .  A
O1108     Al1118   1.903       .  S
Al1109     O1122   1.914   1_554  S
Al1109     O1119   1.951       .  S
Al1109     O1114   1.786       .  S
O1110      C1117   1.261       .  A
O1110     Al1118   1.872   1_554  S
O1111      C1120   1.258       .  A
O1111     Al1118   1.893       .  S
O1112     Al1118   1.912   1_554  S
O1113      C1120   1.267       .  A
O1114     Al1118   1.776   1_554  S
O1115      C1116   1.259       .  A
C1116      C2533   1.491       .  S
C1117      C2758   1.492       .  S
C1120      C2517   1.471       .  S
C1121      O1122   1.257       .  A
C1121      C2890   1.486       .  S
O1123      C1138   1.264       .  A
O1123     Al1131   1.960       .  S
C1124      O1134   1.257       .  A
C1124      O1125   1.245       .  A
C1124      C2518   1.465       .  S
O1125     Al1127   1.868   1_565  S
O1126      C1128   1.258       .  A
O1126     Al1127   1.888       .  S
Al1127     O1135   1.899       .  S
Al1127     O1137   1.913       .  S
Al1127     O1136   1.791       .  S
C1128      O1141   1.281       .  A
C1128      C2530   1.492       .  S
O1129      C1139   1.266   1_545  A
O1129     Al1131   1.921       .  S
O1130      C1143   1.258       .  A
O1130     Al1140   1.895   1_545  S
Al1131     O1144   1.940       .  S
Al1131     O1141   1.973       .  S
Al1131     O1136   1.787       .  S
O1132      C1139   1.260       .  A
O1132     Al1140   1.880       .  S
O1133      C1142   1.270       .  A
O1133     Al1140   1.904   1_545  S
O1134     Al1140   1.915       .  S
O1135      C1142   1.270       .  A
O1136     Al1140   1.767   1_545  S
O1137      C1138   1.254       .  A
C1138      C2509   1.493       .  S
C1139      C2497   1.467       .  S
C1142      C2506   1.463       .  S
C1143      O1144   1.261       .  A
C1143      C2501   1.491       .  S
O1145      C1160   1.269       .  A
O1145     Al1153   1.949       .  S
C1146      O1156   1.256       .  A
C1146      O1147   1.261       .  A
C1146      C2493   1.458       .  S
O1147     Al1149   1.883       .  S
O1148      C1150   1.254       .  A
O1148     Al1149   1.873       .  S
Al1149     O1157   1.891       .  S
Al1149     O1159   1.920       .  S
Al1149     O1158   1.778       .  S
C1150      O1163   1.274       .  A
C1150      C2486   1.487       .  S
O1151      C1161   1.274       .  A
O1151     Al1153   1.943       .  S
O1152      C1165   1.263       .  A
O1152     Al1162   1.899       .  S
Al1153     O1166   1.934       .  S
Al1153     O1163   1.984       .  S
Al1153     O1158   1.784       .  S
O1154      C1161   1.268       .  A
O1154     Al1162   1.920       .  S
O1155      C1164   1.267       .  A
O1155     Al1162   1.942       .  S
O1156     Al1162   1.889       .  S
O1157      C1164   1.260       .  A
O1158     Al1162   1.774       .  S
O1159      C1160   1.262       .  A
C1160      C2489   1.495       .  S
C1161      C3098   1.485       .  S
C1164      C2481   1.477       .  S
C1165      O1166   1.263       .  A
C1165      C3078   1.486       .  S
O1167      C1182   1.266       .  A
O1167     Al1175   1.945       .  S
C1168      O1178   1.258       .  A
C1168      O1169   1.258       .  A
C1168      C2482   1.480       .  S
O1169     Al1171   1.900       .  S
O1170      C1172   1.254       .  A
O1170     Al1171   1.873       .  S
Al1171     O1179   1.866       .  S
Al1171     O1181   1.930       .  S
Al1171     O1180   1.778       .  S
C1172      O1185   1.281       .  A
C1172      C2478   1.491       .  S
O1173      C1183   1.269       .  A
O1173     Al1175   1.913       .  S
O1174      C1187   1.260       .  A
O1174     Al1184   1.903       .  S
Al1175     O1188   1.956       .  S
Al1175     O1185   2.006       .  S
Al1175     O1180   1.784       .  S
O1176      C1183   1.271       .  A
O1176     Al1184   1.917       .  S
O1177      C1186   1.271       .  A
O1177     Al1184   1.939       .  S
O1178     Al1184   1.913       .  S
O1179      C1186   1.256       .  A
O1180     Al1184   1.769       .  S
O1181      C1182   1.263       .  A
C1182      C2474   1.489       .  S
C1183      C2465   1.477       .  S
C1186      C2469   1.463       .  S
C1187      O1188   1.266       .  A
C1187      C2462   1.504       .  S
O1189      C1204   1.266       .  A
O1189     Al1197   1.961       .  S
C1190      O1200   1.254       .  A
C1190      O1191   1.260       .  A
C1190      C2470   1.467       .  S
O1191     Al1193   1.901       .  S
O1192      C1194   1.257       .  A
O1192     Al1193   1.864       .  S
Al1193     O1201   1.870       .  S
Al1193     O1203   1.926       .  S
Al1193     O1202   1.777       .  S
C1194      O1207   1.281       .  A
C1194      C2454   1.484       .  S
O1195      C1205   1.268       .  A
O1195     Al1197   1.931       .  S
O1196      C1209   1.253       .  A
O1196     Al1206   1.866       .  S
Al1197     O1210   1.955       .  S
Al1197     O1207   1.993       .  S
Al1197     O1202   1.780       .  S
O1198      C1205   1.266       .  A
O1198     Al1206   1.907       .  S
O1199      C1208   1.269       .  A
O1199     Al1206   1.925       .  S
O1200     Al1206   1.894       .  S
O1201      C1208   1.258       .  A
O1202     Al1206   1.770       .  S
O1203      C1204   1.260       .  A
C1204      C2457   1.498       .  S
C1205      C2446   1.490       .  S
C1208      C2494   1.454       .  S
C1209      O1210   1.268       .  A
C1209      C2449   1.476       .  S
O1211      C1226   1.264       .  A
O1211     Al1219   1.932       .  S
C1212      O1222   1.257       .  A
C1212      O1213   1.261       .  A
C1212      C3110   1.468       .  S
O1213     Al1215   1.897   1_545  S
O1214      C1216   1.254   1_545  A
O1214     Al1215   1.862   1_545  S
Al1215     O1223   1.883       .  S
Al1215     O1225   1.925       .  S
Al1215     O1224   1.766       .  S
C1216      O1229   1.273       .  A
C1216      C3049   1.474       .  S
O1217      C1227   1.267       .  A
O1217     Al1219   1.920   1_545  S
O1218      C1231   1.261       .  A
O1218     Al1228   1.879   1_565  S
Al1219     O1232   1.937       .  S
Al1219     O1229   1.974       .  S
Al1219     O1224   1.789       .  S
O1220      C1227   1.268       .  A
O1220     Al1228   1.913       .  S
O1221      C1230   1.267   1_545  A
O1221     Al1228   1.941       .  S
O1222     Al1228   1.901       .  S
O1223      C1230   1.259       .  A
O1224     Al1228   1.772   1_565  S
O1225      C1226   1.263       .  A
C1226      C3146   1.482       .  S
C1227      C2450   1.481       .  S
C1230      C3129   1.470       .  S
C1231      O1232   1.264       .  A
C1231      C2441   1.481       .  S
O1233      C1248   1.269       .  A
O1233     Al1241   1.951       .  S
C1234      O1244   1.255   1_565  A
C1234      O1235   1.261       .  A
C1234      C2525   1.475       .  S
O1235     Al1237   1.905       .  S
O1236      C1238   1.255       .  A
O1236     Al1237   1.888       .  S
Al1237     O1245   1.880   1_565  S
Al1237     O1247   1.930       .  S
Al1237     O1246   1.786       .  S
C1238      O1251   1.277       .  A
C1238      C2514   1.485       .  S
O1239      C1249   1.268       .  A
O1239     Al1241   1.920       .  S
O1240      C1253   1.254       .  A
O1240     Al1250   1.886       .  S
Al1241     O1254   1.961   1_565  S
Al1241     O1251   1.965       .  S
Al1241     O1246   1.781       .  S
O1242      C1249   1.263   1_545  A
O1242     Al1250   1.890       .  S
O1243      C1252   1.262       .  A
O1243     Al1250   1.887       .  S
O1244     Al1250   1.895       .  S
O1245      C1252   1.259       .  A
O1246     Al1250   1.766   1_565  S
O1247      C1248   1.265       .  A
C1248      C2437   1.494       .  S
C1249      C2442   1.464       .  S
C1252      C2433   1.452       .  S
C1253      O1254   1.265       .  A
C1253      C2445   1.486       .  S
O1255      C1270   1.270       .  A
O1255     Al1263   1.958       .  S
C1256      O1266   1.255       .  A
C1256      O1257   1.255       .  A
C1256      C2434   1.455       .  S
O1257     Al1259   1.863   1_554  S
O1258      C1260   1.256       .  A
O1258     Al1259   1.912       .  S
Al1259     O1267   1.896       .  S
Al1259     O1269   1.914       .  S
Al1259     O1268   1.792       .  S
C1260      O1273   1.273       .  A
C1260      C2430   1.489       .  S
O1261      C1271   1.276   1_556  A
O1261     Al1263   1.959       .  S
O1262      C1275   1.262       .  A
O1262     Al1272   1.903   1_556  S
Al1263     O1276   1.919       .  S
Al1263     O1273   1.951       .  S
Al1263     O1268   1.778       .  S
O1264      C1271   1.264       .  A
O1264     Al1272   1.904       .  S
O1265      C1274   1.264       .  A
O1265     Al1272   1.921   1_556  S
O1266     Al1272   1.890       .  S
O1267      C1274   1.263       .  A
O1268     Al1272   1.776   1_556  S
O1269      C1270   1.259       .  A
C1270      C2510   1.492       .  S
C1271      C2461   1.491       .  S
C1274      C2538   1.471       .  S
C1275      O1276   1.258       .  A
C1275      C2425   1.485       .  S
O1277      C1292   1.269       .  A
O1277     Al1285   1.938       .  S
C1278      O1288   1.256   1_556  A
C1278      O1279   1.263       .  A
C1278      C3069   1.453       .  S
O1279     Al1281   1.886       .  S
O1280      C1282   1.251       .  A
O1280     Al1281   1.870       .  S
Al1281     O1289   1.885   1_556  S
Al1281     O1291   1.920       .  S
Al1281     O1290   1.761       .  S
C1282      O1295   1.277       .  A
C1282      C3162   1.486       .  S
O1283      C1293   1.272       .  A
O1283     Al1285   1.940       .  S
O1284      C1297   1.255       .  A
O1284     Al1294   1.873       .  S
Al1285     O1298   1.975   1_556  S
Al1285     O1295   1.996       .  S
Al1285     O1290   1.776       .  S
O1286      C1293   1.263   1_554  A
O1286     Al1294   1.901       .  S
O1287      C1296   1.262       .  A
O1287     Al1294   1.904       .  S
O1288     Al1294   1.884       .  S
O1289      C1296   1.257       .  A
O1290     Al1294   1.767   1_556  S
O1291      C1292   1.264       .  A
C1292      C3038   1.481       .  S
C1293      C2426   1.474       .  S
C1296      C3090   1.458       .  S
C1297      O1298   1.273       .  A
C1297      C2466   1.476       .  S
O1299      C1314   1.266       .  A
O1299     Al1307   1.952       .  S
C1300      O1310   1.260       .  A
C1300      O1301   1.254       .  A
C1300      C2874   1.466       .  S
O1301     Al1303   1.883   1_655  S
O1302      C1304   1.256       .  A
O1302     Al1303   1.872       .  S
Al1303     O1311   1.888       .  S
Al1303     O1313   1.913       .  S
Al1303     O1312   1.778       .  S
C1304      O1317   1.276       .  A
C1304      C2798   1.482       .  S
O1305      C1315   1.269       .  A
O1305     Al1307   1.934   1_655  S
O1306      C1319   1.262       .  A
O1306     Al1316   1.897   1_455  S
Al1307     O1320   1.938       .  S
Al1307     O1317   1.980       .  S
Al1307     O1312   1.787       .  S
O1308      C1315   1.265       .  A
O1308     Al1316   1.896       .  S
O1309      C1318   1.266   1_655  A
O1309     Al1316   1.922       .  S
O1310     Al1316   1.920       .  S
O1311      C1318   1.262       .  A
O1312     Al1316   1.776   1_455  S
O1313      C1314   1.258       .  A
C1314      C2777   1.488       .  S
C1315      C2418   1.491       .  S
C1318      C2765   1.465       .  S
C1319      O1320   1.264       .  A
C1319      C2421   1.491       .  S
O1321      C1336   1.275       .  A
O1321     Al1329   1.983       .  S
C1322      O1332   1.267       .  A
C1322      O1323   1.256       .  A
C1322      C3054   1.466       .  S
O1323     Al1325   1.883       .  S
O1324      C1326   1.261       .  A
O1324     Al1325   1.910       .  S
Al1325     O1333   1.892   1_545  S
Al1325     O1335   1.880   1_545  S
Al1325     O1334   1.771       .  S
C1326      O1339   1.270       .  A
C1326      C3102   1.484       .  S
O1327      C1337   1.264       .  A
O1327     Al1329   1.946       .  S
O1328      C1341   1.266       .  A
O1328     Al1338   1.904       .  S
Al1329     O1342   1.939   1_545  S
Al1329     O1339   1.955       .  S
Al1329     O1334   1.784       .  S
O1330      C1337   1.258       .  A
O1330     Al1338   1.884   1_545  S
O1331      C1340   1.254       .  A
O1331     Al1338   1.897       .  S
O1332     Al1338   1.922   1_545  S
O1333      C1340   1.261       .  A
O1334     Al1338   1.769   1_545  S
O1335      C1336   1.257   1_565  A
C1336      C3126   1.488       .  S
C1337      C2413   1.485       .  S
C1340      C3150   1.471       .  S
C1341      O1342   1.273       .  A
C1341      C2417   1.476       .  S
O1343      C1358   1.272       .  A
O1343     Al1351   1.964       .  S
C1344      O1354   1.255       .  A
C1344      O1345   1.259       .  A
C1344      C2397   1.460       .  S
O1345     Al1347   1.891       .  S
O1346      C1348   1.254       .  A
O1346     Al1347   1.866       .  S
Al1347     O1355   1.875       .  S
Al1347     O1357   1.916       .  S
Al1347     O1356   1.772       .  S
C1348      O1361   1.278       .  A
C1348      C2402   1.486       .  S
O1349      C1359   1.267       .  A
O1349     Al1351   1.919       .  S
O1350      C1363   1.260       .  A
O1350     Al1360   1.893       .  S
Al1351     O1364   1.960       .  S
Al1351     O1361   1.994       .  S
Al1351     O1356   1.776       .  S
O1352      C1359   1.265       .  A
O1352     Al1360   1.905       .  S
O1353      C1362   1.268       .  A
O1353     Al1360   1.926       .  S
O1354     Al1360   1.895       .  S
O1355      C1362   1.258       .  A
O1356     Al1360   1.771       .  S
O1357      C1358   1.260       .  A
C1358      C2405   1.496       .  S
C1359      C2393   1.466       .  S
C1362      C2409   1.460       .  S
C1363      O1364   1.269       .  A
C1363      C2389   1.493       .  S
O1365      C1380   1.270       .  A
O1365     Al1373   1.963       .  S
C1366      O1376   1.255       .  A
C1366      O1367   1.257       .  A
C1366      C2381   1.468       .  S
O1367     Al1369   1.891   1_655  S
O1368      C1370   1.255       .  A
O1368     Al1369   1.863       .  S
Al1369     O1377   1.869       .  S
Al1369     O1379   1.917       .  S
Al1369     O1378   1.777       .  S
C1370      O1383   1.278       .  A
C1370      C2377   1.481       .  S
O1371      C1381   1.272   1_455  A
O1371     Al1373   1.936       .  S
O1372      C1385   1.259       .  A
O1372     Al1382   1.891   1_455  S
Al1373     O1386   1.946       .  S
Al1373     O1383   1.989       .  S
Al1373     O1378   1.781       .  S
O1374      C1381   1.267       .  A
O1374     Al1382   1.912       .  S
O1375      C1384   1.270       .  A
O1375     Al1382   1.931   1_455  S
O1376     Al1382   1.902       .  S
O1377      C1384   1.257       .  A
O1378     Al1382   1.771   1_455  S
O1379      C1380   1.259       .  A
C1380      C2373   1.493       .  S
C1381      C2882   1.489       .  S
C1384      C2385   1.459       .  S
C1385      O1386   1.265       .  A
C1385      C2770   1.492       .  S
O1387      C1402   1.272       .  A
O1387     Al1395   1.950       .  S
C1388      O1398   1.256       .  A
C1388      O1389   1.261       .  A
C1388      C2365   1.467       .  S
O1389     Al1391   1.893   1_565  S
O1390      C1392   1.254       .  A
O1390     Al1391   1.884       .  S
Al1391     O1399   1.883   1_545  S
Al1391     O1401   1.921       .  S
Al1391     O1400   1.767   1_545  S
C1392      O1405   1.268       .  A
C1392      C2369   1.478       .  S
O1393      C1403   1.273       .  A
O1393     Al1395   1.940       .  S
O1394      C1407   1.262       .  A
O1394     Al1404   1.900       .  S
Al1395     O1408   1.933   1_545  S
Al1395     O1405   1.964       .  S
Al1395     O1400   1.782   1_545  S
O1396      C1403   1.265   1_565  A
O1396     Al1404   1.908       .  S
O1397      C1406   1.264       .  A
O1397     Al1404   1.918       .  S
O1398     Al1404   1.896       .  S
O1399      C1406   1.257       .  A
O1400     Al1404   1.777       .  S
O1401      C1402   1.265       .  A
C1402      C2361   1.487       .  S
C1403      C3058   1.476       .  S
C1406      C2382   1.465       .  S
C1407      O1408   1.263       .  A
C1407      C3194   1.483       .  S
O1409      C1424   1.267       .  A
O1409     Al1417   1.954       .  S
C1410      O1420   1.263       .  A
C1410      O1411   1.251       .  A
C1410      C2353   1.465       .  S
O1411     Al1413   1.868   1_455  S
O1412      C1414   1.256       .  A
O1412     Al1413   1.880       .  S
Al1413     O1421   1.903   1_565  S
Al1413     O1423   1.896       .  S
Al1413     O1422   1.789       .  S
C1414      O1427   1.269       .  A
C1414      C2378   1.479       .  S
O1415      C1425   1.273       .  A
O1415     Al1417   1.949   1_455  S
O1416      C1429   1.266       .  A
O1416     Al1426   1.914   1_655  S
Al1417     O1430   1.912       .  S
Al1417     O1427   1.958       .  S
Al1417     O1422   1.792       .  S
O1418      C1425   1.257       .  A
O1418     Al1426   1.882   1_565  S
O1419      C1428   1.260   1_455  A
O1419     Al1426   1.897       .  S
O1420     Al1426   1.923   1_565  S
O1421      C1428   1.262       .  A
O1422     Al1426   1.783   1_665  S
O1423      C1424   1.255       .  A
C1424      C2362   1.486       .  S
C1425      C2345   1.480       .  S
C1428      C2357   1.469       .  S
C1429      O1430   1.259   1_545  A
C1429      C2350   1.487       .  S
O1431      C1446   1.268       .  A
O1431     Al1439   1.954       .  S
C1432      O1442   1.261       .  A
C1432      O1433   1.256       .  A
C1432      C2338   1.476       .  S
O1433     Al1435   1.878   1_545  S
O1434      C1436   1.258       .  A
O1434     Al1435   1.897       .  S
Al1435     O1443   1.893       .  S
Al1435     O1445   1.916       .  S
Al1435     O1444   1.776       .  S
C1436      O1449   1.270       .  A
C1436      C2341   1.486       .  S
O1437      C1447   1.270   1_565  A
O1437     Al1439   1.937       .  S
O1438      C1451   1.262       .  A
O1438     Al1448   1.900   1_565  S
Al1439     O1452   1.922       .  S
Al1439     O1449   1.962       .  S
Al1439     O1444   1.792       .  S
O1440      C1447   1.263       .  A
O1440     Al1448   1.892       .  S
O1441      C1450   1.260   1_545  A
O1441     Al1448   1.913       .  S
O1442     Al1448   1.921       .  S
O1443      C1450   1.264       .  A
O1444     Al1448   1.786   1_565  S
O1445      C1446   1.260       .  A
C1446      C2374   1.493       .  S
C1447      C2329   1.482       .  S
C1450      C2354   1.476       .  S
C1451      O1452   1.260       .  A
C1451      C2334   1.480       .  S
O1453      C1468   1.269       .  A
O1453     Al1461   1.951       .  S
C1454      O1464   1.260       .  A
C1454      O1455   1.256       .  A
C1454      C2358   1.468       .  S
O1455     Al1457   1.879   1_455  S
O1456      C1458   1.255       .  A
O1456     Al1457   1.881       .  S
Al1457     O1465   1.888   1_655  S
Al1457     O1467   1.916       .  S
Al1457     O1466   1.777       .  S
C1458      O1471   1.270       .  A
C1458      C2370   1.477       .  S
O1459      C1469   1.276       .  A
O1459     Al1461   1.945       .  S
O1460      C1473   1.265       .  A
O1460     Al1470   1.919       .  S
Al1461     O1474   1.909   1_655  S
Al1461     O1471   1.969       .  S
Al1461     O1466   1.781       .  S
O1462      C1469   1.266   1_455  A
O1462     Al1470   1.910       .  S
O1463      C1472   1.266       .  A
O1463     Al1470   1.931       .  S
O1464     Al1470   1.911       .  S
O1465      C1472   1.260       .  A
O1466     Al1470   1.773   1_655  S
O1467      C1468   1.260       .  A
C1468      C2326   1.489   1_655  S
C1469      C2321   1.481       .  S
C1472      C2337   1.472       .  S
C1473      O1474   1.258       .  A
C1473      C2317   1.479       .  S
O1475      C1490   1.265       .  A
O1475     Al1483   1.941       .  S
C1476      O1486   1.258       .  A
C1476      O1477   1.260       .  A
C1476      C2298   1.463       .  S
O1477     Al1479   1.893   1_455  S
O1478      C1480   1.251       .  A
O1478     Al1479   1.856   1_455  S
Al1479     O1487   1.889       .  S
Al1479     O1489   1.916       .  S
Al1479     O1488   1.783   1_655  S
C1480      O1493   1.276   1_455  A
C1480      C2306   1.480       .  S
O1481      C1491   1.263       .  A
O1481     Al1483   1.907   1_455  S
O1482      C1495   1.264       .  A
O1482     Al1492   1.911   1_655  S
Al1483     O1496   1.945       .  S
Al1483     O1493   1.983       .  S
Al1483     O1488   1.779   1_655  S
O1484      C1491   1.263       .  A
O1484     Al1492   1.900       .  S
O1485      C1494   1.266   1_455  A
O1485     Al1492   1.917       .  S
O1486     Al1492   1.901       .  S
O1487      C1494   1.261       .  A
O1488     Al1492   1.771       .  S
O1489      C1490   1.260       .  A
C1490      C2302   1.489       .  S
C1491      C2314   1.459       .  S
C1494      C2309   1.464       .  S
C1495      O1496   1.267       .  A
C1495      C2322   1.492       .  S
O1497      C1512   1.268       .  A
O1497     Al1505   1.945       .  S
C1498      O1508   1.257       .  A
C1498      O1499   1.262       .  A
C1498      C2285   1.459       .  S
O1499     Al1501   1.889       .  S
O1500      C1502   1.254       .  A
O1500     Al1501   1.866       .  S
Al1501     O1509   1.887       .  S
Al1501     O1511   1.921       .  S
Al1501     O1510   1.769       .  S
C1502      O1515   1.270       .  A
C1502      C2289   1.473       .  S
O1503      C1513   1.270       .  A
O1503     Al1505   1.928       .  S
O1504      C1517   1.261       .  A
O1504     Al1514   1.888       .  S
Al1505     O1518   1.929       .  S
Al1505     O1515   1.961       .  S
Al1505     O1510   1.776       .  S
O1506      C1513   1.263       .  A
O1506     Al1514   1.902       .  S
O1507      C1516   1.263       .  A
O1507     Al1514   1.909       .  S
O1508     Al1514   1.892       .  S
O1509      C1516   1.259       .  A
O1510     Al1514   1.768       .  S
O1511      C1512   1.262       .  A
C1512      C2293   1.490       .  S
C1513      C2318   1.467       .  S
C1516      C2398   1.459       .  S
C1517      O1518   1.263       .  A
C1517      C2313   1.473       .  S
O1519      C1534   1.273       .  A
O1519     Al1527   1.965       .  S
C1520      O1530   1.256       .  A
C1520      O1521   1.261       .  A
C1520      C2410   1.464       .  S
O1521     Al1523   1.893       .  S
O1522      C1524   1.254       .  A
O1522     Al1523   1.879       .  S
Al1523     O1531   1.874       .  S
Al1523     O1533   1.924       .  S
Al1523     O1532   1.769       .  S
C1524      O1537   1.276       .  A
C1524      C2281   1.486       .  S
O1525      C1535   1.274       .  A
O1525     Al1527   1.950       .  S
O1526      C1539   1.256       .  A
O1526     Al1536   1.880       .  S
Al1527     O1540   1.967       .  S
Al1527     O1537   1.987       .  S
Al1527     O1532   1.776       .  S
O1528      C1535   1.264       .  A
O1528     Al1536   1.905       .  S
O1529      C1538   1.263       .  A
O1529     Al1536   1.910       .  S
O1530     Al1536   1.895       .  S
O1531      C1538   1.256       .  A
O1532     Al1536   1.770       .  S
O1533      C1534   1.264       .  A
C1534      C2277   1.497       .  S
C1535      C2273   1.482       .  S
C1538      C2286   1.454       .  S
C1539      O1540   1.269       .  A
C1539      C2330   1.481       .  S
O1541      C1556   1.274       .  A
O1541     Al1549   1.965       .  S
C1542      O1552   1.255   1_565  A
C1542      O1543   1.253       .  A
C1542      C2269   1.473       .  S
O1543     Al1545   1.877       .  S
O1544      C1546   1.256       .  A
O1544     Al1545   1.890       .  S
Al1545     O1553   1.884   1_565  S
Al1545     O1555   1.918       .  S
Al1545     O1554   1.780       .  S
C1546      O1559   1.268       .  A
C1546      C2266   1.484       .  S
O1547      C1557   1.272       .  A
O1547     Al1549   1.929       .  S
O1548      C1561   1.259       .  A
O1548     Al1558   1.907       .  S
Al1549     O1562   1.929       .  S
Al1549     O1559   1.961       .  S
Al1549     O1554   1.787       .  S
O1550      C1557   1.264       .  A
O1550     Al1558   1.891   1_565  S
O1551      C1560   1.263       .  A
O1551     Al1558   1.898       .  S
O1552     Al1558   1.909       .  S
O1553      C1560   1.260       .  A
O1554     Al1558   1.780   1_565  S
O1555      C1556   1.262       .  A
C1556      C2261   1.496       .  S
C1557      C2333   1.466       .  S
C1560      C2258   1.460       .  S
C1561      O1562   1.258   1_545  A
C1561      C2274   1.495       .  S
O1563      C1578   1.264       .  A
O1563     Al1571   1.929       .  S
C1564      O1574   1.256   1_455  A
C1564      O1565   1.264       .  A
C1564      C2386   1.463       .  S
O1565     Al1567   1.903   1_565  S
O1566      C1568   1.251   1_565  A
O1566     Al1567   1.863   1_565  S
Al1567     O1575   1.874   1_455  S
Al1567     O1577   1.938       .  S
Al1567     O1576   1.767   1_545  S
C1568      O1581   1.277       .  A
C1568      C2342   1.483       .  S
O1569      C1579   1.273       .  A
O1569     Al1571   1.938   1_565  S
O1570      C1583   1.256       .  A
O1570     Al1580   1.876   1_545  S
Al1571     O1584   1.963   1_455  S
Al1571     O1581   1.997       .  S
Al1571     O1576   1.784   1_545  S
O1572      C1579   1.266   1_655  A
O1572     Al1580   1.910       .  S
O1573      C1582   1.265   1_565  A
O1573     Al1580   1.928       .  S
O1574     Al1580   1.888       .  S
O1575      C1582   1.255       .  A
O1576     Al1580   1.765   1_455  S
O1577      C1578   1.266       .  A
C1578      C2325   1.485   1_455  S
C1579      C2422   1.478       .  S
C1582      C2366   1.462       .  S
C1583      O1584   1.270       .  A
C1583      C2414   1.475       .  S
O1585      C1600   1.271       .  A
O1585     Al1593   1.962       .  S
C1586      O1596   1.255       .  A
C1586      O1587   1.258       .  A
C1586      C2242   1.475       .  S
O1587     Al1589   1.897       .  S
O1588      C1590   1.255       .  A
O1588     Al1589   1.874       .  S
Al1589     O1597   1.855       .  S
Al1589     O1599   1.933       .  S
Al1589     O1598   1.769       .  S
C1590      O1603   1.279       .  A
C1590      C2282   1.485       .  S
O1591      C1601   1.271       .  A
O1591     Al1593   1.926       .  S
O1592      C1605   1.255       .  A
O1592     Al1602   1.882       .  S
Al1593     O1606   1.956       .  S
Al1593     O1603   1.997       .  S
Al1593     O1598   1.781       .  S
O1594      C1601   1.270       .  A
O1594     Al1602   1.917       .  S
O1595      C1604   1.270       .  A
O1595     Al1602   1.934       .  S
O1596     Al1602   1.904       .  S
O1597      C1604   1.254       .  A
O1598     Al1602   1.772       .  S
O1599      C1600   1.264       .  A
C1600      C2406   1.497       .  S
C1601      C2254   1.479       .  S
C1604      C2245   1.456       .  S
C1605      O1606   1.266       .  A
C1605      C2250   1.492       .  S
O1607      C1622   1.266       .  A
O1607     Al1615   1.940       .  S
C1608      O1618   1.254       .  A
C1608      O1609   1.264       .  A
C1608      C2246   1.463       .  S
O1609     Al1611   1.901       .  S
O1610      C1612   1.254       .  A
O1610     Al1611   1.863       .  S
Al1611     O1619   1.879       .  S
Al1611     O1621   1.929       .  S
Al1611     O1620   1.773       .  S
C1612      O1625   1.278       .  A
C1612      C2401   1.483       .  S
O1613      C1623   1.266       .  A
O1613     Al1615   1.906       .  S
O1614      C1627   1.255       .  A
O1614     Al1624   1.879       .  S
Al1615     O1628   1.960       .  S
Al1615     O1625   1.990       .  S
Al1615     O1620   1.785       .  S
O1616      C1623   1.266       .  A
O1616     Al1624   1.907       .  S
O1617      C1626   1.266       .  A
O1617     Al1624   1.925       .  S
O1618     Al1624   1.886       .  S
O1619      C1626   1.258       .  A
O1620     Al1624   1.767       .  S
O1621      C1622   1.263       .  A
C1622      C2294   1.487       .  S
C1623      C2233   1.460       .  S
C1626      C2230   1.461       .  S
C1627      O1628   1.268       .  A
C1627      C2237   1.478       .  S
O1629      C1644   1.271       .  A
O1629     Al1637   1.968       .  S
C1630      O1640   1.255       .  A
C1630      O1631   1.258       .  A
C1630      C2229   1.464       .  S
O1631     Al1633   1.888       .  S
O1632      C1634   1.254       .  A
O1632     Al1633   1.865       .  S
Al1633     O1641   1.876       .  S
Al1633     O1643   1.914       .  S
Al1633     O1642   1.775       .  S
C1634      O1647   1.273       .  A
C1634      C2290   1.474       .  S
O1635      C1645   1.271       .  A
O1635     Al1637   1.938       .  S
O1636      C1649   1.263       .  A
O1636     Al1646   1.899       .  S
Al1637     O1650   1.922       .  S
Al1637     O1647   1.969       .  S
Al1637     O1642   1.783       .  S
O1638      C1645   1.268       .  A
O1638     Al1646   1.911       .  S
O1639      C1648   1.271       .  A
O1639     Al1646   1.949       .  S
O1640     Al1646   1.901       .  S
O1641      C1648   1.258       .  A
O1642     Al1646   1.773       .  S
O1643      C1644   1.259       .  A
C1644      C2278   1.497       .  S
C1645      C2221   1.492       .  S
C1648      C2241   1.470       .  S
C1649      O1650   1.261       .  A
C1649      C2225   1.484       .  S
O1651      C1666   1.273       .  A
O1651     Al1659   1.969       .  S
C1652      O1662   1.258       .  A
C1652      O1653   1.261       .  A
C1652      C2213   1.463       .  S
O1653     Al1655   1.888       .  S
O1654      C1656   1.252       .  A
O1654     Al1655   1.865       .  S
Al1655     O1663   1.879       .  S
Al1655     O1665   1.915       .  S
Al1655     O1664   1.774       .  S
C1656      O1669   1.277       .  A
C1656      C2485   1.484       .  S
O1657      C1667   1.277       .  A
O1657     Al1659   1.964       .  S
O1658      C1671   1.257       .  A
O1658     Al1668   1.890       .  S
Al1659     O1672   1.959       .  S
Al1659     O1669   1.995       .  S
Al1659     O1664   1.780       .  S
O1660      C1667   1.266       .  A
O1660     Al1668   1.906       .  S
O1661      C1670   1.265       .  A
O1661     Al1668   1.915       .  S
O1662     Al1668   1.897       .  S
O1663      C1670   1.255       .  A
O1664     Al1668   1.765       .  S
O1665      C1666   1.260       .  A
C1666      C2458   1.497       .  S
C1667      C2210   1.490       .  S
C1670      C2217   1.462       .  S
C1671      O1672   1.268       .  A
C1671      C2253   1.481       .  S
O1673      C1688   1.277       .  A
O1673     Al1681   1.960       .  S
C1674      O1684   1.266       .  A
C1674      O1675   1.262       .  A
C1674      C2205   1.473       .  S
O1675     Al1677   1.895       .  S
O1676      C1678   1.260       .  A
O1676     Al1677   1.915       .  S
Al1677     O1685   1.882       .  S
Al1677     O1687   1.906       .  S
Al1677     O1686   1.792       .  S
C1678      O1691   1.263       .  A
C1678      C2542   1.488       .  S
O1679      C1689   1.263       .  A
O1679     Al1681   1.942       .  S
O1680      C1693   1.269       .  A
O1680     Al1690   1.917       .  S
Al1681     O1694   1.938       .  S
Al1681     O1691   1.947       .  S
Al1681     O1686   1.785       .  S
O1682      C1689   1.257       .  A
O1682     Al1690   1.891       .  S
O1683      C1692   1.261       .  A
O1683     Al1690   1.914       .  S
O1684     Al1690   1.922       .  S
O1685      C1692   1.255       .  A
O1686     Al1690   1.778       .  S
O1687      C1688   1.258       .  A
C1688      C2562   1.491       .  S
C1689      C2249   1.483       .  S
C1692      C2201   1.464       .  S
C1693      O1694   1.269       .  A
C1693      C2209   1.504       .  S
O1695      C1710   1.272       .  A
O1695     Al1703   1.960       .  S
C1696      O1706   1.254   1_545  A
C1696      O1697   1.252       .  A
C1696      C2505   1.465       .  S
O1697     Al1699   1.869   1_556  S
O1698      C1700   1.257       .  A
O1698     Al1699   1.918       .  S
Al1699     O1707   1.891   1_545  S
Al1699     O1709   1.915       .  S
Al1699     O1708   1.798       .  S
C1700      O1713   1.272       .  A
C1700      C2429   1.491       .  S
O1701      C1711   1.275       .  A
O1701     Al1703   1.942   1_556  S
O1702      C1715   1.259       .  A
O1702     Al1712   1.915   1_554  S
Al1703     O1716   1.930   1_545  S
Al1703     O1713   1.952       .  S
Al1703     O1708   1.781       .  S
O1704      C1711   1.265       .  A
O1704     Al1712   1.895   1_545  S
O1705      C1714   1.264       .  A
O1705     Al1712   1.904   1_554  S
O1706     Al1712   1.897       .  S
O1707      C1714   1.262       .  A
O1708     Al1712   1.779   1_544  S
O1709      C1710   1.261       .  A
C1710      C2438   1.491       .  S
C1711      C2601   1.477       .  S
C1714      C2522   1.465       .  S
C1715      O1716   1.258       .  A
C1715      C2578   1.501       .  S
O1717      C1732   1.273       .  A
O1717     Al1725   1.947       .  S
C1718      O1728   1.254       .  A
C1718      O1719   1.261       .  A
C1718      C2218   1.462       .  S
O1719     Al1721   1.900       .  S
O1720      C1722   1.252       .  A
O1720     Al1721   1.871       .  S
Al1721     O1729   1.873       .  S
Al1721     O1731   1.926       .  S
Al1721     O1730   1.769       .  S
C1722      O1735   1.274       .  A
C1722      C2453   1.483       .  S
O1723      C1733   1.271       .  A
O1723     Al1725   1.928       .  S
O1724      C1737   1.257       .  A
O1724     Al1734   1.887       .  S
Al1725     O1738   1.970       .  S
Al1725     O1735   1.984       .  S
Al1725     O1730   1.779       .  S
O1726      C1733   1.267       .  A
O1726     Al1734   1.912       .  S
O1727      C1736   1.265       .  A
O1727     Al1734   1.912       .  S
O1728     Al1734   1.882       .  S
O1729      C1736   1.255       .  A
O1730     Al1734   1.764       .  S
O1731      C1732   1.266       .  A
C1732      C2473   1.487       .  S
C1733      C2226   1.471       .  S
C1736      C2193   1.459       .  S
C1737      O1738   1.269       .  A
C1737      C2197   1.494       .  S
O1739      C1754   1.264       .  A
O1739     Al1747   1.946       .  S
C1740      O1750   1.254       .  A
C1740      O1741   1.261       .  A
C1740      C2194   1.461       .  S
O1741     Al1743   1.898       .  S
O1742      C1744   1.255       .  A
O1742     Al1743   1.868       .  S
Al1743     O1751   1.874       .  S
Al1743     O1753   1.929       .  S
Al1743     O1752   1.774       .  S
C1744      O1757   1.282       .  A
C1744      C2477   1.488       .  S
O1745      C1755   1.269       .  A
O1745     Al1747   1.924       .  S
O1746      C1759   1.253       .  A
O1746     Al1756   1.864       .  S
Al1747     O1760   1.959       .  S
Al1747     O1757   2.000       .  S
Al1747     O1752   1.784       .  S
O1748      C1755   1.263       .  A
O1748     Al1756   1.895       .  S
O1749      C1758   1.266       .  A
O1749     Al1756   1.928       .  S
O1750     Al1756   1.886       .  S
O1751      C1758   1.257       .  A
O1752     Al1756   1.767       .  S
O1753      C1754   1.261       .  A
C1754      C2490   1.491       .  S
C1755      C2189   1.468       .  S
C1758      C2214   1.457       .  S
C1759      O1760   1.269       .  A
C1759      C2185   1.472       .  S
O1761      C1776   1.254       .  A
O1761     Al1769   1.896       .  S
C1762      O1772   1.260       .  A
C1762      O1763   1.264       .  A
C1762      C2177   1.468       .  S
O1763     Al1765   1.906       .  S
O1764      C1766   1.252       .  A
O1764     Al1765   1.850       .  S
Al1765     O1773   1.883       .  S
Al1765     O1775   1.924       .  S
Al1765     O1774   1.770       .  S
C1766      O1779   1.275       .  A
C1766      C2553   1.476       .  S
O1767      C1777   1.262       .  A
O1767     Al1769   1.896       .  S
O1768      C1781   1.260       .  A
O1768     Al1778   1.875       .  S
Al1769     O1782   1.946       .  S
Al1769     O1779   1.979       .  S
Al1769     O1774   1.790       .  S
O1770      C1777   1.269       .  A
O1770     Al1778   1.921       .  S
O1771      C1780   1.267       .  A
O1771     Al1778   1.943       .  S
O1772     Al1778   1.900       .  S
O1773      C1780   1.259       .  A
O1774     Al1778   1.765       .  S
O1775      C1776   1.263       .  A
C1776      C2546   1.465       .  S
C1777      C2181   1.468       .  S
C1780      C2206   1.476       .  S
C1781      O1782   1.267       .  A
C1781      C2234   1.477       .  S
O1783      C1798   1.263       .  A
O1783     Al1791   1.926       .  S
C1784      O1794   1.258       .  A
C1784      O1785   1.263       .  A
C1784      C2202   1.474       .  S
O1785     Al1787   1.904       .  S
O1786      C1788   1.254       .  A
O1786     Al1787   1.856       .  S
Al1787     O1795   1.881       .  S
Al1787     O1797   1.922       .  S
Al1787     O1796   1.771       .  S
C1788      O1801   1.281       .  A
C1788      C2574   1.492       .  S
O1789      C1799   1.265       .  A
O1789     Al1791   1.907       .  S
O1790      C1803   1.255       .  A
O1790     Al1800   1.878       .  S
Al1791     O1804   1.976       .  S
Al1791     O1801   2.007       .  S
Al1791     O1796   1.786       .  S
O1792      C1799   1.270       .  A
O1792     Al1800   1.917       .  S
O1793      C1802   1.268       .  A
O1793     Al1800   1.932       .  S
O1794     Al1800   1.905       .  S
O1795      C1802   1.258       .  A
O1796     Al1800   1.766       .  S
O1797      C1798   1.261       .  A
C1798      C2550   1.476       .  S
C1799      C2186   1.478       .  S
C1802      C2178   1.466       .  S
C1803      O1804   1.271       .  A
C1803      C2173   1.484       .  S
O1805      C1820   1.263       .  A
O1805     Al1813   1.966       .  S
C1806      O1816   1.259       .  A
C1806      O1807   1.249       .  A
C1806      C2165   1.468       .  S
O1807     Al1809   1.879       .  S
O1808      C1810   1.261       .  A
O1808     Al1809   1.855       .  S
Al1809     O1817   1.880       .  S
Al1809     O1819   1.889       .  S
Al1809     O1818   1.780       .  S
C1810      O1823   1.286       .  A
C1810      C2653   1.478       .  S
O1811      C1821   1.267       .  A
O1811     Al1813   1.936       .  S
O1812      C1825   1.258       .  A
O1812     Al1822   1.877       .  S
Al1813     O1826   1.956       .  S
Al1813     O1823   2.000       .  S
Al1813     O1818   1.785       .  S
O1814      C1821   1.259       .  A
O1814     Al1822   1.887       .  S
O1815      C1824   1.274       .  A
O1815     Al1822   1.934       .  S
O1816     Al1822   1.937       .  S
O1817      C1824   1.265       .  A
O1818     Al1822   1.770       .  S
O1819      C1820   1.247       .  A
C1820      C2634   1.486       .  S
C1821      C2198   1.480       .  S
C1824      C2169   1.460       .  S
C1825      O1826   1.269       .  A
C1825      C2222   1.486       .  S
O1827      C1842   1.271       .  A
O1827     Al1835   1.955       .  S
C1828      O1838   1.258       .  A
C1828      O1829   1.262       .  A
C1828      C2698   1.467       .  S
O1829     Al1831   1.900   1_656  S
O1830      C1832   1.252       .  A
O1830     Al1831   1.867       .  S
Al1831     O1839   1.888   1_554  S
Al1831     O1841   1.919       .  S
Al1831     O1840   1.775       .  S
C1832      O1845   1.269       .  A
C1832      C2610   1.476       .  S
O1833      C1843   1.271   1_455  A
O1833     Al1835   1.936       .  S
O1834      C1847   1.262       .  A
O1834     Al1844   1.897       .  S
Al1835     O1848   1.925   1_554  S
Al1835     O1845   1.960       .  S
Al1835     O1840   1.780       .  S
O1836      C1843   1.262   1_556  A
O1836     Al1844   1.894   1_655  S
O1837      C1846   1.261       .  A
O1837     Al1844   1.888       .  S
O1838     Al1844   1.897   1_655  S
O1839      C1846   1.258       .  A
O1840     Al1844   1.767   1_554  S
O1841      C1842   1.263       .  A
C1842      C2617   1.493       .  S
C1843      C2722   1.469       .  S
C1846      C2690   1.457       .  S
C1847      O1848   1.261       .  A
C1847      C2746   1.477       .  S
O1849      C1864   1.278       .  A
O1849     Al1857   1.993       .  S
C1850      O1860   1.270       .  A
C1850      O1851   1.257       .  A
C1850      C2161   1.468       .  S
O1851     Al1853   1.879       .  S
O1852      C1854   1.264       .  A
O1852     Al1853   1.922       .  S
Al1853     O1861   1.904       .  S
Al1853     O1863   1.875       .  S
Al1853     O1862   1.770       .  S
C1854      O1867   1.264       .  A
C1854      C2670   1.479       .  S
O1855      C1865   1.267       .  A
O1855     Al1857   1.955       .  S
O1856      C1869   1.269       .  A
O1856     Al1866   1.913       .  S
Al1857     O1870   1.912       .  S
Al1857     O1867   1.935       .  S
Al1857     O1862   1.786       .  S
O1858      C1865   1.260       .  A
O1858     Al1866   1.896       .  S
O1859      C1868   1.258       .  A
O1859     Al1866   1.912       .  S
O1860     Al1866   1.936       .  S
O1861      C1868   1.262       .  A
O1862     Al1866   1.770       .  S
O1863      C1864   1.256       .  A
C1864      C2658   1.488       .  S
C1865      C2174   1.492       .  S
C1868      C2166   1.485       .  S
C1869      O1870   1.267       .  A
C1869      C2190   1.475       .  S
O1871      C1886   1.263       .  A
O1871     Al1879   1.941       .  S
C1872      O1882   1.257       .  A
C1872      O1873   1.263       .  A
C1872      C2170   1.459       .  S
O1873     Al1875   1.898       .  S
O1874      C1876   1.256       .  A
O1874     Al1875   1.868       .  S
Al1875     O1883   1.897       .  S
Al1875     O1885   1.914       .  S
Al1875     O1884   1.771       .  S
C1876      O1889   1.275       .  A
C1876      C2637   1.484       .  S
O1877      C1887   1.262       .  A
O1877     Al1879   1.920       .  S
O1878      C1891   1.254       .  A
O1878     Al1888   1.864       .  S
Al1879     O1892   1.952       .  S
Al1879     O1889   1.980       .  S
Al1879     O1884   1.784       .  S
O1880      C1887   1.262       .  A
O1880     Al1888   1.908       .  S
O1881      C1890   1.262       .  A
O1881     Al1888   1.920       .  S
O1882     Al1888   1.894       .  S
O1883      C1890   1.263       .  A
O1884     Al1888   1.778       .  S
O1885      C1886   1.259       .  A
C1886      C2666   1.487       .  S
C1887      C2238   1.479       .  S
C1890      C2162   1.470       .  S
C1891      O1892   1.270       .  A
C1891      C2182   1.466       .  S
O1893      C1908   1.265       .  A
O1893     Al1901   1.947       .  S
C1894      O1904   1.255       .  A
C1894      O1895   1.261       .  A
C1894      C3214   1.465       .  S
O1895     Al1897   1.895       .  S
O1896      C1898   1.256       .  A
O1896     Al1897   1.873       .  S
Al1897     O1905   1.879       .  S
Al1897     O1907   1.928       .  S
Al1897     O1906   1.772       .  S
C1898      O1911   1.283       .  A
C1898      C3245   1.494       .  S
O1899      C1909   1.266       .  A
O1899     Al1901   1.918       .  S
O1900      C1913   1.251       .  A
O1900     Al1910   1.868       .  S
Al1901     O1914   1.968       .  S
Al1901     O1911   2.004       .  S
Al1901     O1906   1.780       .  S
O1902      C1909   1.267       .  A
O1902     Al1910   1.914       .  S
O1903      C1912   1.267       .  A
O1903     Al1910   1.924       .  S
O1904     Al1910   1.893       .  S
O1905      C1912   1.260       .  A
O1906     Al1910   1.770       .  S
O1907      C1908   1.262       .  A
C1908      C3006   1.490       .  S
C1909      C2678   1.482       .  S
C1912      C3226   1.459       .  S
C1913      O1914   1.271       .  A
C1913      C2157   1.478       .  S
O1915      C1930   1.264       .  A
O1915     Al1923   1.936       .  S
C1916      O1926   1.256       .  A
C1916      O1917   1.263       .  A
C1916      C2902   1.456       .  S
O1917     Al1919   1.898       .  S
O1918      C1920   1.252       .  A
O1918     Al1919   1.853       .  S
Al1919     O1927   1.877       .  S
Al1919     O1929   1.925       .  S
Al1919     O1928   1.771       .  S
C1920      O1933   1.278       .  A
C1920      C2958   1.479       .  S
O1921      C1931   1.269       .  A
O1921     Al1923   1.925       .  S
O1922      C1935   1.260       .  A
O1922     Al1932   1.878       .  S
Al1923     O1936   1.948       .  S
Al1923     O1933   1.990       .  S
Al1923     O1928   1.781       .  S
O1924      C1931   1.269       .  A
O1924     Al1932   1.919       .  S
O1925      C1934   1.269       .  A
O1925     Al1932   1.949       .  S
O1926     Al1932   1.885       .  S
O1927      C1934   1.255       .  A
O1928     Al1932   1.765       .  S
O1929      C1930   1.261       .  A
C1930      C2922   1.485       .  S
C1931      C2153   1.482       .  S
C1934      C2898   1.469       .  S
C1935      O1936   1.267       .  A
C1935      C2498   1.481       .  S
O1937      C1952   1.252       .  A
O1937     Al1945   1.895       .  S
C1938      O1948   1.260       .  A
C1938      O1939   1.258       .  A
C1938      C2145   1.453       .  S
O1939     Al1941   1.894       .  S
O1940      C1942   1.252       .  A
O1940     Al1941   1.842       .  S
Al1941     O1949   1.891       .  S
Al1941     O1951   1.918       .  S
Al1941     O1950   1.782       .  S
C1942      O1955   1.276       .  A
C1942      C2265   1.474       .  S
O1943      C1953   1.259       .  A
O1943     Al1945   1.898       .  S
O1944      C1957   1.256       .  A
O1944     Al1954   1.866       .  S
Al1945     O1958   1.941       .  S
Al1945     O1955   1.975       .  S
Al1945     O1950   1.789       .  S
O1946      C1953   1.267       .  A
O1946     Al1954   1.923       .  S
O1947      C1956   1.268       .  A
O1947     Al1954   1.942       .  S
O1948     Al1954   1.891       .  S
O1949      C1956   1.261       .  A
O1950     Al1954   1.769       .  S
O1951      C1952   1.259       .  A
C1952      C2149   1.471       .  S
C1953      C2914   1.478       .  S
C1956      C2585   1.474       .  S
C1957      O1958   1.268       .  A
C1957      C2862   1.465       .  S
O1959      C1974   1.268       .  A
O1959     Al1967   1.942       .  S
C1960      O1970   1.261       .  A
C1960      O1961   1.258       .  A
C1960      C2730   1.455       .  S
O1961     Al1963   1.885       .  S
O1962      C1964   1.255       .  A
O1962     Al1963   1.886       .  S
Al1963     O1971   1.897       .  S
Al1963     O1973   1.921       .  S
Al1963     O1972   1.773       .  S
C1964      O1977   1.269       .  A
C1964      C2141   1.479       .  S
O1965      C1975   1.275       .  A
O1965     Al1967   1.947       .  S
O1966      C1979   1.265       .  A
O1966     Al1976   1.905       .  S
Al1967     O1980   1.923       .  S
Al1967     O1977   1.964       .  S
Al1967     O1972   1.779       .  S
O1968      C1975   1.263       .  A
O1968     Al1976   1.906       .  S
O1969      C1978   1.263       .  A
O1969     Al1976   1.924       .  S
O1970     Al1976   1.907       .  S
O1971      C1978   1.261       .  A
O1972     Al1976   1.773       .  S
O1973      C1974   1.262       .  A
C1974      C2301   1.483       .  S
C1975      C3174   1.478       .  S
C1978      C2138   1.478       .  S
C1979      O1980   1.262       .  A
C1979      C3234   1.474       .  S
O1981      C1996   1.263       .  A
O1981     Al1989   1.942       .  S
C1982      O1992   1.263       .  A
C1982      O1983   1.256       .  A
C1982      C2129   1.452       .  S
O1983     Al1985   1.881       .  S
O1984      C1986   1.251       .  A
O1984     Al1985   1.834       .  S
Al1985     O1993   1.894       .  S
Al1985     O1995   1.877       .  S
Al1985     O1994   1.786       .  S
C1986      O1999   1.275       .  A
C1986      C2726   1.480       .  S
O1987      C1997   1.265       .  A
O1987     Al1989   1.941       .  S
O1988      C2001   1.266       .  A
O1988     Al1998   1.884       .  S
Al1989     O2002   1.941       .  S
Al1989     O1999   1.976       .  S
Al1989     O1994   1.787       .  S
O1990      C1997   1.257       .  A
O1990     Al1998   1.883       .  S
O1991      C2000   1.262       .  A
O1991     Al1998   1.909       .  S
O1992     Al1998   1.904       .  S
O1993      C2000   1.259       .  A
O1994     Al1998   1.772       .  S
O1995      C1996   1.251       .  A
C1996      C2133   1.476       .  S
C1997      C2125   1.489       .  S
C2000      C2297   1.465       .  S
C2001      O2002   1.269       .  A
C2001      C2394   1.482       .  S
O2003      C2018   1.268   1_455  A
O2003     Al2011   1.947   1_455  S
C2004      O2014   1.261       .  A
C2004      O2005   1.263       .  A
C2004      C2310   1.466       .  S
O2005     Al2007   1.897       .  S
O2006      C2008   1.255       .  A
O2006     Al2007   1.877   1_655  S
Al2007     O2015   1.888       .  S
Al2007     O2017   1.904   1_455  S
Al2007     O2016   1.761       .  S
C2008      O2021   1.270       .  A
C2008      C2142   1.479       .  S
O2009      C2019   1.268       .  A
O2009     Al2011   1.946       .  S
O2010      C2023   1.257       .  A
O2010     Al2020   1.868       .  S
Al2011     O2024   1.961   1_655  S
Al2011     O2021   1.962       .  S
Al2011     O2016   1.784   1_655  S
O2012      C2019   1.255   1_455  A
O2012     Al2020   1.886       .  S
O2013      C2022   1.255       .  A
O2013     Al2020   1.896       .  S
O2014     Al2020   1.905       .  S
O2015      C2022   1.261       .  A
O2016     Al2020   1.782       .  S
O2017      C2018   1.260       .  A
C2018      C2737   1.484       .  S
C2019      C2349   1.474       .  S
C2022      C2130   1.461       .  S
C2023      O2024   1.273       .  A
C2023      C2121   1.470       .  S
O2025      C2040   1.268       .  A
O2025     Al2033   1.950       .  S
C2026      O2036   1.258       .  A
C2026      O2027   1.259       .  A
C2026      C2257   1.463       .  S
O2027     Al2029   1.881       .  S
O2028      C2030   1.255       .  A
O2028     Al2029   1.877       .  S
Al2029     O2037   1.885       .  S
Al2029     O2039   1.924       .  S
Al2029     O2038   1.774       .  S
C2030      O2043   1.279       .  A
C2030      C2117   1.489       .  S
O2031      C2041   1.271       .  A
O2031     Al2033   1.940       .  S
O2032      C2045   1.257       .  A
O2032     Al2042   1.878       .  S
Al2033     O2046   1.968       .  S
Al2033     O2043   1.996       .  S
Al2033     O2038   1.780       .  S
O2034      C2041   1.264       .  A
O2034     Al2042   1.910       .  S
O2035      C2044   1.264       .  A
O2035     Al2042   1.925       .  S
O2036     Al2042   1.902       .  S
O2037      C2044   1.263       .  A
O2038     Al2042   1.770       .  S
O2039      C2040   1.260       .  A
C2040      C2581   1.489       .  S
C2041      C2390   1.480       .  S
C2044      C2114   1.472       .  S
C2045      O2046   1.270       .  A
C2045      C2126   1.483       .  S
O2047      C2062   1.257       .  A
O2047     Al2055   1.912       .  S
C2048      O2058   1.263       .  A
C2048      O2049   1.257       .  A
C2048      C2113   1.461       .  S
O2049     Al2051   1.887   1_545  S
O2050      C2052   1.253       .  A
O2050     Al2051   1.860       .  S
Al2051     O2059   1.892       .  S
Al2051     O2061   1.912       .  S
Al2051     O2060   1.781       .  S
C2052      O2065   1.276       .  A
C2052      C2593   1.480       .  S
O2053      C2063   1.265   1_565  A
O2053     Al2055   1.907       .  S
O2054      C2067   1.266       .  A
O2054     Al2064   1.918   1_565  S
Al2055     O2068   1.936       .  S
Al2055     O2065   1.986       .  S
Al2055     O2060   1.789       .  S
O2056      C2063   1.267       .  A
O2056     Al2064   1.903       .  S
O2057      C2066   1.267       .  A
O2057     Al2064   1.930   1_565  S
O2058     Al2064   1.912       .  S
O2059      C2066   1.261       .  A
O2060     Al2064   1.767   1_565  S
O2061      C2062   1.259       .  A
C2062      C2150   1.469       .  S
C2063      C2122   1.472       .  S
C2066      C2270   1.471       .  S
C2067      O2068   1.265       .  A
C2067      C2346   1.492       .  S
O2069      C2084   1.270       .  A
O2069     Al2077   1.964       .  S
C2070      O2080   1.257       .  A
C2070      O2071   1.260       .  A
C2070      C2590   1.462       .  S
O2071     Al2073   1.889       .  S
O2072      C2074   1.255       .  A
O2072     Al2073   1.876       .  S
Al2073     O2081   1.882   1_545  S
Al2073     O2083   1.917       .  S
Al2073     O2082   1.773       .  S
C2074      O2087   1.279       .  A
C2074      C2118   1.491       .  S
O2075      C2085   1.274       .  A
O2075     Al2077   1.956       .  S
O2076      C2089   1.255       .  A
O2076     Al2086   1.874       .  S
Al2077     O2090   1.968   1_545  S
Al2077     O2087   1.997       .  S
Al2077     O2082   1.779       .  S
O2078      C2085   1.262       .  A
O2078     Al2086   1.894   1_545  S
O2079      C2088   1.261       .  A
O2079     Al2086   1.911       .  S
O2080     Al2086   1.897   1_545  S
O2081      C2088   1.260       .  A
O2082     Al2086   1.775   1_545  S
O2083      C2084   1.260       .  A
C2084      C2262   1.496       .  S
C2085      C2502   1.498       .  S
C2088      C2146   1.463       .  S
C2089      O2090   1.271       .  A
C2089      C2154   1.480       .  S
O2091      C2106   1.273       .  A
O2091     Al2099   1.977       .  S
C2092      O2102   1.270       .  A
C2092      O2093   1.259       .  A
C2092      C2137   1.474       .  S
O2093     Al2095   1.885   1_655  S
O2094      C2096   1.265       .  A
O2094     Al2095   1.928       .  S
Al2095     O2103   1.900       .  S
Al2095     O2105   1.877       .  S
Al2095     O2104   1.776       .  S
C2096      O2109   1.263       .  A
C2096      C2305   1.489       .  S
O2097      C2107   1.261   1_455  A
O2097     Al2099   1.930       .  S
O2098      C2111   1.272       .  A
O2098     Al2108   1.916   1_455  S
Al2099     O2112   1.914       .  S
Al2099     O2109   1.930       .  S
Al2099     O2104   1.789       .  S
O2100      C2107   1.262       .  A
O2100     Al2108   1.908       .  S
O2101      C2110   1.258       .  A
O2101     Al2108   1.905   1_455  S
O2102     Al2108   1.942       .  S
O2103      C2110   1.261       .  A
O2104     Al2108   1.767   1_455  S
O2105      C2106   1.256       .  A
C2106      C2134   1.485       .  S
C2107      C2158   1.487       .  S
C2110      C2734   1.476       .  S
C2111      O2112   1.268       .  A
C2111      C2682   1.482       .  S
C2113      C2114   1.337       .  D
C2113      H2115   1.088       .  S
C2114      H2116   1.087       .  S
C2117      C2118   1.359       .  D
C2117      H2119   1.086       .  S
C2118      H2120   1.086       .  S
C2121      C2122   1.338       .  D
C2121      H2123   1.089       .  S
C2122      H2124   1.086       .  S
C2125      C2126   1.349       .  D
C2125      H2127   1.085       .  S
C2126      H2128   1.089       .  S
C2129      C2130   1.330       .  D
C2129      H2131   1.088       .  S
C2130      H2132   1.087       .  S
C2133      C2134   1.353       .  D
C2133      H2135   1.087       .  S
C2134      H2136   1.086       .  S
C2137      C2138   1.343       .  D
C2137      H2139   1.088       .  S
C2138      H2140   1.087       .  S
C2141      C2142   1.349       .  D
C2141      H2143   1.086       .  S
C2142      H2144   1.086       .  S
C2145      C2146   1.335       .  D
C2145      H2147   1.087       .  S
C2146      H2148   1.087       .  S
C2149      C2150   1.334       .  D
C2149      H2151   1.087       .  S
C2150      H2152   1.087       .  S
C2153      C2154   1.344       .  D
C2153      H2155   1.086       .  S
C2154      H2156   1.089       .  S
C2157      C2158   1.342       .  D
C2157      H2159   1.087       .  S
C2158      H2160   1.086       .  S
C2161      C2162   1.339       .  D
C2161      H2163   1.087       .  S
C2162      H2164   1.087       .  S
C2165      C2166   1.341       .  D
C2165      H2167   1.088       .  S
C2166      H2168   1.086       .  S
C2169      C2170   1.338       .  D
C2169      H2171   1.089       .  S
C2170      H2172   1.086       .  S
C2173      C2174   1.347       .  D
C2173      H2175   1.088       .  S
C2174      H2176   1.086       .  S
C2177      C2178   1.341       .  D
C2177      H2179   1.086       .  S
C2178      H2180   1.088       .  S
C2181      C2182   1.335       .  D
C2181      H2183   1.086       .  S
C2182      H2184   1.089       .  S
C2185      C2186   1.340       .  D
C2185      H2187   1.089       .  S
C2186      H2188   1.086       .  S
C2189      C2190   1.340       .  D
C2189      H2191   1.089       .  S
C2190      H2192   1.086       .  S
C2193      C2194   1.337       .  D
C2193      H2195   1.088       .  S
C2194      H2196   1.086       .  S
C2197      C2198   1.351       .  D
C2197      H2199   1.086       .  S
C2198      H2200   1.087       .  S
C2201      C2202   1.340       .  D
C2201      H2203   1.089       .  S
C2202      H2204   1.086       .  S
C2205      C2206   1.347       .  D
C2205      H2207   1.087       .  S
C2206      H2208   1.086       .  S
C2209      C2210   1.352       .  D
C2209      H2211   1.086       .  S
C2210      H2212   1.088       .  S
C2213      C2214   1.339       .  D
C2213      H2215   1.086       .  S
C2214      H2216   1.089       .  S
C2217      C2218   1.338       .  D
C2217      H2219   1.088       .  S
C2218      H2220   1.087       .  S
C2221      C2222   1.350       .  D
C2221      H2223   1.085       .  S
C2222      H2224   1.089       .  S
C2225      C2226   1.339       .  D
C2225      H2227   1.087       .  S
C2226      H2228   1.087       .  S
C2229      C2230   1.341       .  D
C2229      H2231   1.086       .  S
C2230      H2232   1.089       .  S
C2233      C2234   1.341       .  D
C2233      H2235   1.087       .  S
C2234      H2236   1.086       .  S
C2237      C2238   1.345       .  D
C2237      H2239   1.089       .  S
C2238      H2240   1.085       .  S
C2241      C2242   1.342       .  D
C2241      H2243   1.089       .  S
C2242      H2244   1.086       .  S
C2245      C2246   1.333       .  D
C2245      H2247   1.089       .  S
C2246      H2248   1.086       .  S
C2249      C2250   1.352       .  D
C2249      H2251   1.087       .  S
C2250      H2252   1.086       .  S
C2253      C2254   1.346       .  D
C2253      H2255   1.089       .  S
C2254      H2256   1.086       .  S
C2257      C2258   1.342       .  D
C2257      H2259   1.086       .  S
C2258      H2260   1.088       .  S
C2261      C2262   1.355   1_565  D
C2261      H2263   1.087       .  S
C2262      H2264   1.087       .  S
C2265      C2266   1.353       .  D
C2265      H2267   1.087       .  S
C2266      H2268   1.087       .  S
C2269      C2270   1.346       .  D
C2269      H2271   1.086   1_565  S
C2270      H2272   1.088       .  S
C2273      C2274   1.344       .  D
C2273      H2275   1.087       .  S
C2274      H2276   1.086       .  S
C2277      C2278   1.357       .  D
C2277      H2279   1.087       .  S
C2278      H2280   1.086       .  S
C2281      C2282   1.357       .  D
C2281      H2283   1.086       .  S
C2282      H2284   1.086       .  S
C2285      C2286   1.338       .  D
C2285      H2287   1.086       .  S
C2286      H2288   1.088       .  S
C2289      C2290   1.335       .  D
C2289      H2291   1.087       .  S
C2290      H2292   1.088       .  S
C2293      C2294   1.346       .  D
C2293      H2295   1.086       .  S
C2294      H2296   1.086       .  S
C2297      C2298   1.344       .  D
C2297      H2299   1.088       .  S
C2298      H2300   1.086       .  S
C2301      C2302   1.345       .  D
C2301      H2303   1.087       .  S
C2302      H2304   1.086       .  S
C2305      C2306   1.341       .  D
C2305      H2307   1.086   1_455  S
C2306      H2308   1.088       .  S
C2309      C2310   1.344   1_655  D
C2309      H2311   1.088       .  S
C2310      H2312   1.086       .  S
C2313      C2314   1.337       .  D
C2313      H2315   1.087       .  S
C2314      H2316   1.087       .  S
C2317      C2318   1.336       .  D
C2317      H2319   1.088       .  S
C2318      H2320   1.087       .  S
C2321      C2322   1.347       .  D
C2321      H2323   1.086       .  S
C2322      H2324   1.086       .  S
C2325      C2326   1.346   1_655  D
C2325      H2327   1.087       .  S
C2326      H2328   1.086       .  S
C2329      C2330   1.346       .  D
C2329      H2331   1.085       .  S
C2330      H2332   1.089       .  S
C2333      C2334   1.338       .  D
C2333      H2335   1.087       .  S
C2334      H2336   1.087       .  S
C2337      C2338   1.347       .  D
C2337      H2339   1.088       .  S
C2338      H2340   1.086       .  S
C2341      C2342   1.355   1_565  D
C2341      H2343   1.087       .  S
C2342      H2344   1.086       .  S
C2345      C2346   1.344       .  D
C2345      H2347   1.087       .  S
C2346      H2348   1.087       .  S
C2349      C2350   1.338       .  D
C2349      H2351   1.087       .  S
C2350      H2352   1.087       .  S
C2353      C2354   1.336       .  D
C2353      H2355   1.088       .  S
C2354      H2356   1.087   1_565  S
C2357      C2358   1.349   1_655  D
C2357      H2359   1.088       .  S
C2358      H2360   1.086       .  S
C2361      C2362   1.352   1_545  D
C2361      H2363   1.088       .  S
C2362      H2364   1.087       .  S
C2365      C2366   1.340   1_565  D
C2365      H2367   1.086       .  S
C2366      H2368   1.088       .  S
C2369      C2370   1.348       .  D
C2369      H2371   1.086       .  S
C2370      H2372   1.086       .  S
C2373      C2374   1.354       .  D
C2373      H2375   1.087       .  S
C2374      H2376   1.087       .  S
C2377      C2378   1.352   1_455  D
C2377      H2379   1.086       .  S
C2378      H2380   1.087       .  S
C2381      C2382   1.343       .  D
C2381      H2383   1.086       .  S
C2382      H2384   1.089       .  S
C2385      C2386   1.336       .  D
C2385      H2387   1.089       .  S
C2386      H2388   1.087   1_455  S
C2389      C2390   1.348       .  D
C2389      H2391   1.086       .  S
C2390      H2392   1.087       .  S
C2393      C2394   1.342       .  D
C2393      H2395   1.087       .  S
C2394      H2396   1.086       .  S
C2397      C2398   1.342       .  D
C2397      H2399   1.086       .  S
C2398      H2400   1.088       .  S
C2401      C2402   1.341       .  D
C2401      H2403   1.087       .  S
C2402      H2404   1.088       .  S
C2405      C2406   1.356       .  D
C2405      H2407   1.086       .  S
C2406      H2408   1.087       .  S
C2409      C2410   1.339       .  D
C2409      H2411   1.089       .  S
C2410      H2412   1.086       .  S
C2413      C2414   1.345       .  D
C2413      H2415   1.086       .  S
C2414      H2416   1.087       .  S
C2417      C2418   1.348       .  D
C2417      H2419   1.088       .  S
C2418      H2420   1.086       .  S
C2421      C2422   1.345       .  D
C2421      H2423   1.086       .  S
C2422      H2424   1.087       .  S
C2425      C2426   1.340       .  D
C2425      H2427   1.086       .  S
C2426      H2428   1.087       .  S
C2429      C2430   1.361   1_554  D
C2429      H2431   1.088       .  S
C2430      H2432   1.088       .  S
C2433      C2434   1.340       .  D
C2433      H2435   1.086       .  S
C2434      H2436   1.087       .  S
C2437      C2438   1.353   1_565  D
C2437      H2439   1.087       .  S
C2438      H2440   1.086       .  S
C2441      C2442   1.341       .  D
C2441      H2443   1.086       .  S
C2442      H2444   1.087       .  S
C2445      C2446   1.349       .  D
C2445      H2447   1.088       .  S
C2446      H2448   1.085       .  S
C2449      C2450   1.343       .  D
C2449      H2451   1.089       .  S
C2450      H2452   1.086       .  S
C2453      C2454   1.357       .  D
C2453      H2455   1.086       .  S
C2454      H2456   1.086       .  S
C2457      C2458   1.357       .  D
C2457      H2459   1.087       .  S
C2458      H2460   1.086       .  S
C2461      C2462   1.351       .  D
C2461      H2463   1.087       .  S
C2462      H2464   1.086       .  S
C2465      C2466   1.340       .  D
C2465      H2467   1.086       .  S
C2466      H2468   1.089       .  S
C2469      C2470   1.337       .  D
C2469      H2471   1.088       .  S
C2470      H2472   1.086       .  S
C2473      C2474   1.353       .  D
C2473      H2475   1.087       .  S
C2474      H2476   1.087       .  S
C2477      C2478   1.361       .  D
C2477      H2479   1.086       .  S
C2478      H2480   1.086       .  S
C2481      C2482   1.347       .  D
C2481      H2483   1.088       .  S
C2482      H2484   1.086       .  S
C2485      C2486   1.344       .  D
C2485      H2487   1.087       .  S
C2486      H2488   1.087       .  S
C2489      C2490   1.349       .  D
C2489      H2491   1.086       .  S
C2490      H2492   1.086       .  S
C2493      C2494   1.337       .  D
C2493      H2495   1.086       .  S
C2494      H2496   1.089       .  S
C2497      C2498   1.343       .  D
C2497      H2499   1.087       .  S
C2498      H2500   1.086       .  S
C2501      C2502   1.358       .  D
C2501      H2503   1.088       .  S
C2502      H2504   1.085       .  S
C2505      C2506   1.344       .  D
C2505      H2507   1.087   1_545  S
C2506      H2508   1.084       .  S
C2509      C2510   1.352       .  D
C2509      H2511   1.088       .  S
C2510      H2512   1.087       .  S
C2513      C2514   1.361       .  D
C2513      H2515   1.087       .  S
C2514      H2516   1.087       .  S
C2517      C2518   1.332       .  D
C2517      H2519   1.087       .  S
C2518      H2520   1.085       .  S
C2521      C2522   1.345       .  D
C2521      H2523   1.086       .  S
C2522      H2524   1.084       .  S
C2525      C2526   1.340       .  D
C2525      H2527   1.087   1_565  S
C2526      H2528   1.087       .  S
C2529      C2530   1.366       .  D
C2529      H2531   1.087   1_545  S
C2530      H2532   1.087       .  S
C2533      C2534   1.355   1_554  D
C2533      H2535   1.087       .  S
C2534      H2536   1.087       .  S
C2537      C2538   1.347       .  D
C2537      H2539   1.085       .  S
C2538      H2540   1.078       .  S
C2541      C2542   1.356       .  D
C2541      H2543   1.086       .  S
C2542      H2544   1.088       .  S
C2545      C2546   1.334       .  D
C2545      H2547   1.086       .  S
C2546      H2548   1.087       .  S
C2549      C2550   1.348       .  D
C2549      H2551   1.087       .  S
C2550      H2552   1.088       .  S
C2553      C2554   1.353       .  D
C2553      H2555   1.086       .  S
C2554      H2556   1.087       .  S
C2557      C2558   1.348       .  D
C2557      H2559   1.086       .  S
C2558      H2560   1.088       .  S
C2561      C2562   1.362       .  D
C2561      H2563   1.087       .  S
C2562      H2564   1.087       .  S
C2565      C2566   1.337       .  D
C2565      H2567   1.086       .  S
C2566      H2568   1.088       .  S
C2569      C2570   1.340       .  D
C2569      H2571   1.087       .  S
C2570      H2572   1.086       .  S
C2573      C2574   1.357       .  D
C2573      H2575   1.088       .  S
C2574      H2576   1.086       .  S
C2577      C2578   1.347       .  D
C2577      H2579   1.087       .  S
C2578      H2580   1.086       .  S
C2581      C2582   1.349       .  D
C2581      H2583   1.087       .  S
C2582      H2584   1.086       .  S
C2585      C2586   1.347       .  D
C2585      H2587   1.088       .  S
C2586      H2588   1.086       .  S
C2589      C2590   1.341       .  D
C2589      H2591   1.089       .  S
C2590      H2592   1.086   1_545  S
C2593      C2594   1.354   1_565  D
C2593      H2595   1.087       .  S
C2594      H2596   1.086       .  S
C2597      C2598   1.345       .  D
C2597      H2599   1.086       .  S
C2598      H2600   1.088       .  S
C2601      C2602   1.343       .  D
C2601      H2603   1.087       .  S
C2602      H2604   1.086       .  S
C2605      C2606   1.340       .  D
C2605      H2607   1.087       .  S
C2606      H2608   1.087       .  S
C2609      C2610   1.336       .  D
C2609      H2611   1.087       .  S
C2610      H2612   1.088   1_455  S
C2613      C2614   1.352       .  D
C2613      H2615   1.086       .  S
C2614      H2616   1.088       .  S
C2617      C2618   1.356   1_554  D
C2617      H2619   1.087       .  S
C2618      H2620   1.087       .  S
C2621      C2622   1.349       .  D
C2621      H2623   1.086       .  S
C2622      H2624   1.087       .  S
C2625      C2626   1.346       .  D
C2625      H2627   1.086       .  S
C2626      H2628   1.086       .  S
C2629      C2630   1.339       .  D
C2629      H2631   1.089       .  S
C2630      H2632   1.086       .  S
C2633      C2634   1.352       .  D
C2633      H2635   1.088       .  S
C2634      H2636   1.086       .  S
C2637      C2638   1.341       .  D
C2637      H2639   1.088       .  S
C2638      H2640   1.087       .  S
C2641      C2642   1.337       .  D
C2641      H2643   1.086       .  S
C2642      H2644   1.087       .  S
C2645      C2646   1.338       .  D
C2645      H2647   1.087       .  S
C2646      H2648   1.087       .  S
C2649      C2650   1.344       .  D
C2649      H2651   1.089       .  S
C2650      H2652   1.087       .  S
C2653      C2654   1.351       .  D
C2653      H2655   1.086       .  S
C2654      H2656   1.087       .  S
C2657      C2658   1.354       .  D
C2657      H2659   1.087       .  S
C2658      H2660   1.086       .  S
C2661      C2662   1.334       .  D
C2661      H2663   1.087       .  S
C2662      H2664   1.088       .  S
C2665      C2666   1.352       .  D
C2665      H2667   1.086       .  S
C2666      H2668   1.087       .  S
C2669      C2670   1.354       .  D
C2669      H2671   1.086       .  S
C2670      H2672   1.088       .  S
C2673      C2674   1.342       .  D
C2673      H2675   1.086       .  S
C2674      H2676   1.089       .  S
C2677      C2678   1.344       .  D
C2677      H2679   1.089       .  S
C2678      H2680   1.085       .  S
C2681      C2682   1.340       .  D
C2681      H2683   1.089       .  S
C2682      H2684   1.086       .  S
C2685      C2686   1.355       .  D
C2685      H2687   1.087       .  S
C2686      H2688   1.086       .  S
C2689      C2690   1.341       .  D
C2689      H2691   1.087       .  S
C2690      H2692   1.087       .  S
C2693      C2694   1.337       .  D
C2693      H2695   1.087       .  S
C2694      H2696   1.084       .  S
C2697      C2698   1.341   1_554  D
C2697      H2699   1.088       .  S
C2698      H2700   1.086       .  S
C2701      C2702   1.344       .  D
C2701      H2703   1.086       .  S
C2702      H2704   1.086       .  S
C2705      C2706   1.347       .  D
C2705      H2707   1.088       .  S
C2706      H2708   1.086   1_556  S
C2709      C2710   1.349   1_455  D
C2709      H2711   1.087       .  S
C2710      H2712   1.088       .  S
C2713      C2714   1.361   1_556  D
C2713      H2715   1.086       .  S
C2714      H2716   1.086       .  S
C2717      C2718   1.335       .  D
C2717      H2719   1.088       .  S
C2718      H2720   1.087   1_655  S
C2721      C2722   1.337       .  D
C2721      H2723   1.087       .  S
C2722      H2724   1.087       .  S
C2725      C2726   1.355       .  D
C2725      H2727   1.089       .  S
C2726      H2728   1.086       .  S
C2729      C2730   1.333       .  D
C2729      H2731   1.087       .  S
C2730      H2732   1.088       .  S
C2733      C2734   1.342       .  D
C2733      H2735   1.088       .  S
C2734      H2736   1.086       .  S
C2737      C2738   1.353   1_655  D
C2737      H2739   1.087       .  S
C2738      H2740   1.086       .  S
C2741      C2742   1.354       .  D
C2741      H2743   1.089       .  S
C2742      H2744   1.085       .  S
C2745      C2746   1.338       .  D
C2745      H2747   1.088       .  S
C2746      H2748   1.087       .  S
C2749      C2750   1.355   1_554  D
C2749      H2751   1.086       .  S
C2750      H2752   1.087       .  S
C2753      C2754   1.329       .  D
C2753      H2755   1.087   1_554  S
C2754      H2756   1.087       .  S
C2757      C2758   1.353       .  D
C2757      H2759   1.089       .  S
C2758      H2760   1.085       .  S
C2761      C2762   1.352   1_455  D
C2761      H2763   1.087       .  S
C2762      H2764   1.087       .  S
C2765      C2766   1.346       .  D
C2765      H2767   1.088       .  S
C2766      H2768   1.086   1_455  S
C2769      C2770   1.347       .  D
C2769      H2771   1.087       .  S
C2770      H2772   1.086       .  S
C2773      C2774   1.347       .  D
C2773      H2775   1.087       .  S
C2774      H2776   1.086       .  S
C2777      C2778   1.351       .  D
C2777      H2779   1.087       .  S
C2778      H2780   1.087       .  S
C2781      C2782   1.356       .  D
C2781      H2783   1.086       .  S
C2782      H2784   1.086       .  S
C2785      C2786   1.339       .  D
C2785      H2787   1.087       .  S
C2786      H2788   1.089       .  S
C2789      C2790   1.337       .  D
C2789      H2791   1.086       .  S
C2790      H2792   1.088       .  S
C2793      C2794   1.344       .  D
C2793      H2795   1.087       .  S
C2794      H2796   1.086       .  S
C2797      C2798   1.355   1_655  D
C2797      H2799   1.086       .  S
C2798      H2800   1.086       .  S
C2801      C2802   1.345       .  D
C2801      H2803   1.088       .  S
C2802      H2804   1.086   1_655  S
C2805      C2806   1.342       .  D
C2805      H2807   1.086       .  S
C2806      H2808   1.089       .  S
C2809      C2810   1.345       .  D
C2809      H2811   1.089       .  S
C2810      H2812   1.086       .  S
C2813      C2814   1.349       .  D
C2813      H2815   1.086   1_556  S
C2814      H2816   1.086       .  S
C2817      C2818   1.342       .  D
C2817      H2819   1.086       .  S
C2818      H2820   1.088       .  S
C2821      C2822   1.344       .  D
C2821      H2823   1.086       .  S
C2822      H2824   1.088       .  S
C2825      C2826   1.347       .  D
C2825      H2827   1.089       .  S
C2826      H2828   1.085       .  S
C2829      C2830   1.334       .  D
C2829      H2831   1.087       .  S
C2830      H2832   1.087       .  S
C2833      C2834   1.358       .  D
C2833      H2835   1.086       .  S
C2834      H2836   1.087       .  S
C2837      C2838   1.347       .  D
C2837      H2839   1.088       .  S
C2838      H2840   1.087       .  S
C2841      C2842   1.347       .  D
C2841      H2843   1.086       .  S
C2842      H2844   1.088       .  S
C2845      C2846   1.351       .  D
C2845      H2847   1.087       .  S
C2846      H2848   1.087       .  S
C2849      C2850   1.348       .  D
C2849      H2851   1.086       .  S
C2850      H2852   1.088       .  S
C2853      C2854   1.334       .  D
C2853      H2855   1.087       .  S
C2854      H2856   1.087       .  S
C2857      C2858   1.346       .  D
C2857      H2859   1.086       .  S
C2858      H2860   1.088       .  S
C2861      C2862   1.341       .  D
C2861      H2863   1.086       .  S
C2862      H2864   1.089       .  S
C2865      C2866   1.342       .  D
C2865      H2867   1.087       .  S
C2866      H2868   1.086       .  S
C2869      C2870   1.352       .  D
C2869      H2871   1.087       .  S
C2870      H2872   1.086       .  S
C2873      C2874   1.341       .  D
C2873      H2875   1.087       .  S
C2874      H2876   1.088       .  S
C2877      C2878   1.349       .  D
C2877      H2879   1.086       .  S
C2878      H2880   1.088       .  S
C2881      C2882   1.349       .  D
C2881      H2883   1.089       .  S
C2882      H2884   1.086       .  S
C2885      C2886   1.341       .  D
C2885      H2887   1.087       .  S
C2886      H2888   1.086       .  S
C2889      C2890   1.338       .  D
C2889      H2891   1.087       .  S
C2890      H2892   1.087       .  S
C2893      C2894   1.344       .  D
C2893      H2895   1.089       .  S
C2894      H2896   1.086       .  S
C2897      C2898   1.340       .  D
C2897      H2899   1.086       .  S
C2898      H2900   1.089       .  S
C2901      C2902   1.338       .  D
C2901      H2903   1.089       .  S
C2902      H2904   1.087       .  S
C2905      C2906   1.339       .  D
C2905      H2907   1.087       .  S
C2906      H2908   1.089       .  S
C2909      C2910   1.354       .  D
C2909      H2911   1.087       .  S
C2910      H2912   1.085       .  S
C2913      C2914   1.339       .  D
C2913      H2915   1.089       .  S
C2914      H2916   1.086       .  S
C2917      C2918   1.354       .  D
C2917      H2919   1.086       .  S
C2918      H2920   1.086       .  S
C2921      C2922   1.344       .  D
C2921      H2923   1.086       .  S
C2922      H2924   1.086       .  S
C2925      C2926   1.339       .  D
C2925      H2927   1.089       .  S
C2926      H2928   1.086       .  S
C2929      C2930   1.354       .  D
C2929      H2931   1.087       .  S
C2930      H2932   1.086       .  S
C2933      C2934   1.343       .  D
C2933      H2935   1.086       .  S
C2934      H2936   1.086       .  S
C2937      C2938   1.339       .  D
C2937      H2939   1.087       .  S
C2938      H2940   1.087       .  S
C2941      C2942   1.345       .  D
C2941      H2943   1.085       .  S
C2942      H2944   1.090       .  S
C2945      C2946   1.335       .  D
C2945      H2947   1.088       .  S
C2946      H2948   1.087       .  S
C2949      C2950   1.342       .  D
C2949      H2951   1.087       .  S
C2950      H2952   1.087       .  S
C2953      C2954   1.356       .  D
C2953      H2955   1.087       .  S
C2954      H2956   1.087       .  S
C2957      C2958   1.343       .  D
C2957      H2959   1.089       .  S
C2958      H2960   1.086       .  S
C2961      C2962   1.345       .  D
C2961      H2963   1.089       .  S
C2962      H2964   1.086       .  S
C2965      C2966   1.347       .  D
C2965      H2967   1.086       .  S
C2966      H2968   1.088       .  S
C2969      C2970   1.341       .  D
C2969      H2971   1.087       .  S
C2970      H2972   1.086       .  S
C2973      C2974   1.337       .  D
C2973      H2975   1.086       .  S
C2974      H2976   1.087       .  S
C2977      C2978   1.350       .  D
C2977      H2979   1.086       .  S
C2978      H2980   1.087       .  S
C2981      C2982   1.338       .  D
C2981      H2983   1.086       .  S
C2982      H2984   1.087       .  S
C2985      C2986   1.343       .  D
C2985      H2987   1.086       .  S
C2986      H2988   1.089       .  S
C2989      C2990   1.354       .  D
C2989      H2991   1.087       .  S
C2990      H2992   1.088       .  S
C2993      C2994   1.348       .  D
C2993      H2995   1.087       .  S
C2994      H2996   1.086       .  S
C2997      C2998   1.336       .  D
C2997      H2999   1.087       .  S
C2998      H3000   1.087       .  S
C3001      C3002   1.345       .  D
C3001      H3003   1.089       .  S
C3002      H3004   1.085       .  S
C3005      C3006   1.354       .  D
C3005      H3007   1.086       .  S
C3006      H3008   1.087       .  S
C3009      C3010   1.344       .  D
C3009      H3011   1.086       .  S
C3010      H3012   1.089       .  S
C3013      C3014   1.351       .  D
C3013      H3015   1.087       .  S
C3014      H3016   1.087       .  S
C3017      C3018   1.370       .  D
C3017      H3019   1.087       .  S
C3018      H3020   1.087       .  S
C3021      C3022   1.332       .  D
C3021      H3023   1.087       .  S
C3022      H3024   1.087       .  S
C3025      C3026   1.331       .  D
C3025      H3027   1.085       .  S
C3026      H3028   1.088       .  S
C3029      C3030   1.348       .  D
C3029      H3031   1.087       .  S
C3030      H3032   1.086       .  S
C3033      C3034   1.345       .  D
C3033      H3035   1.086       .  S
C3034      H3036   1.089       .  S
C3037      C3038   1.349   1_554  D
C3037      H3039   1.087       .  S
C3038      H3040   1.087       .  S
C3041      C3042   1.334   1_556  D
C3041      H3043   1.087       .  S
C3042      H3044   1.088       .  S
C3045      C3046   1.343       .  D
C3045      H3047   1.086       .  S
C3046      H3048   1.088       .  S
C3049      C3050   1.349   1_565  D
C3049      H3051   1.086       .  S
C3050      H3052   1.087       .  S
C3053      C3054   1.338       .  D
C3053      H3055   1.087   1_545  S
C3054      H3056   1.087       .  S
C3057      C3058   1.342       .  D
C3057      H3059   1.087       .  S
C3058      H3060   1.087       .  S
C3061      C3062   1.341       .  D
C3061      H3063   1.089       .  S
C3062      H3064   1.086       .  S
C3065      C3066   1.355   1_556  D
C3065      H3067   1.086       .  S
C3066      H3068   1.087       .  S
C3069      C3070   1.335       .  D
C3069      H3071   1.087   1_556  S
C3070      H3072   1.089       .  S
C3073      C3074   1.341       .  D
C3073      H3075   1.088       .  S
C3074      H3076   1.087       .  S
C3077      C3078   1.342       .  D
C3077      H3079   1.087       .  S
C3078      H3080   1.086       .  S
C3081      C3082   1.352       .  D
C3081      H3083   1.087       .  S
C3082      H3084   1.086       .  S
C3085      C3086   1.338       .  D
C3085      H3087   1.087       .  S
C3086      H3088   1.087       .  S
C3089      C3090   1.340       .  D
C3089      H3091   1.086       .  S
C3090      H3092   1.088       .  S
C3093      C3094   1.343       .  D
C3093      H3095   1.087       .  S
C3094      H3096   1.087       .  S
C3097      C3098   1.351       .  D
C3097      H3099   1.086       .  S
C3098      H3100   1.087       .  S
C3101      C3102   1.355       .  D
C3101      H3103   1.086       .  S
C3102      H3104   1.088       .  S
C3105      C3106   1.357       .  D
C3105      H3107   1.087       .  S
C3106      H3108   1.087       .  S
C3109      C3110   1.340       .  D
C3109      H3111   1.089       .  S
C3110      H3112   1.086       .  S
C3113      C3114   1.341       .  D
C3113      H3115   1.087       .  S
C3114      H3116   1.087       .  S
C3117      C3118   1.341       .  D
C3117      H3119   1.087       .  S
C3118      H3120   1.086       .  S
C3121      C3122   1.342       .  D
C3121      H3123   1.088       .  S
C3122      H3124   1.087       .  S
C3125      C3126   1.351   1_565  D
C3125      H3127   1.088       .  S
C3126      H3128   1.086       .  S
C3129      C3130   1.346   1_565  D
C3129      H3131   1.088       .  S
C3130      H3132   1.086       .  S
C3133      C3134   1.335       .  D
C3133      H3135   1.086       .  S
C3134      H3136   1.089       .  S
C3137      C3138   1.339       .  D
C3137      H3139   1.087       .  S
C3138      H3140   1.087       .  S
C3141      C3142   1.345       .  D
C3141      H3143   1.087       .  S
C3142      H3144   1.087       .  S
C3145      C3146   1.349       .  D
C3145      H3147   1.087       .  S
C3146      H3148   1.088       .  S
C3149      C3150   1.336       .  D
C3149      H3151   1.089       .  S
C3150      H3152   1.086       .  S
C3153      C3154   1.347       .  D
C3153      H3155   1.086       .  S
C3154      H3156   1.088       .  S
C3157      C3158   1.353       .  D
C3157      H3159   1.086       .  S
C3158      H3160   1.088       .  S
C3161      C3162   1.355       .  D
C3161      H3163   1.087       .  S
C3162      H3164   1.086       .  S
C3165      C3166   1.348       .  D
C3165      H3167   1.088       .  S
C3166      H3168   1.086       .  S
C3169      C3170   1.350       .  D
C3169      H3171   1.086       .  S
C3170      H3172   1.088       .  S
C3173      C3174   1.345       .  D
C3173      H3175   1.087       .  S
C3174      H3176   1.086       .  S
C3177      C3178   1.350       .  D
C3177      H3179   1.087       .  S
C3178      H3180   1.086       .  S
C3181      C3182   1.349       .  D
C3181      H3183   1.088       .  S
C3182      H3184   1.087       .  S
C3185      C3186   1.350       .  D
C3185      H3187   1.086       .  S
C3186      H3188   1.087       .  S
C3189      C3190   1.345       .  D
C3189      H3191   1.086       .  S
C3190      H3192   1.086       .  S
C3193      C3194   1.341       .  D
C3193      H3195   1.087       .  S
C3194      H3196   1.087       .  S
C3197      C3198   1.341       .  D
C3197      H3199   1.087       .  S
C3198      H3200   1.086       .  S
C3201      C3202   1.341       .  D
C3201      H3203   1.087       .  S
C3202      H3204   1.087       .  S
C3205      C3206   1.342       .  D
C3205      H3207   1.087       .  S
C3206      H3208   1.087       .  S
C3209      C3210   1.356       .  D
C3209      H3211   1.086       .  S
C3210      H3212   1.086       .  S
C3213      C3214   1.336       .  D
C3213      H3215   1.089       .  S
C3214      H3216   1.086       .  S
C3217      C3218   1.344       .  D
C3217      H3219   1.086       .  S
C3218      H3220   1.087       .  S
C3221      C3222   1.342       .  D
C3221      H3223   1.087       .  S
C3222      H3224   1.087       .  S
C3225      C3226   1.343       .  D
C3225      H3227   1.086       .  S
C3226      H3228   1.088       .  S
C3229      C3230   1.342       .  D
C3229      H3231   1.087       .  S
C3230      H3232   1.088       .  S
C3233      C3234   1.337       .  D
C3233      H3235   1.087       .  S
C3234      H3236   1.087       .  S
C3237      C3238   1.347       .  D
C3237      H3239   1.087       .  S
C3238      H3240   1.086       .  S
C3241      C3242   1.346       .  D
C3241      H3243   1.086       .  S
C3242      H3244   1.086       .  S
C3245      C3246   1.364       .  D
C3245      H3247   1.086       .  S
C3246      H3248   1.086       .  S
C3249      C3250   1.336       .  D
C3249      H3251   1.087       .  S
C3250      H3252   1.088       .  S
C3253      C3254   1.336       .  D
C3253      H3255   1.087       .  S
C3254      H3256   1.087       .  S
C3257      C3258   1.349       .  D
C3257      H3259   1.089       .  S
C3258      H3260   1.085       .  S
C3261      C3262   1.349       .  D
C3261      H3263   1.086       .  S
C3262      H3264   1.089       .  S
