geometry optimzed in LAMMPS
_audit_creation_date              2020-11-30 
_audit_creation_method            'lammps2cif' 
_symmetry_space_group_name_H-M    'P1' 
_symmetry_Int_Tables_number       1 
_symmetry_cell_setting            triclinic 
loop_ 
_symmetry_equiv_pos_as_xyz 
  x,y,z 
_cell_length_a                    28.35695552 
_cell_length_b                    28.919606538241588 
_cell_length_c                    29.043808251993934 
_cell_angle_alpha                 90.20789397476977 
_cell_angle_beta                  89.99623505218831 
_cell_angle_gamma                 90.40169286359378 
loop_ 
_atom_site_label 
_atom_site_type_symbol 
_atom_site_fract_x 
_atom_site_fract_y 
_atom_site_fract_z 
_atom_site_charge 
O1          O  0.58191745  0.92698390  0.47853280    -0.78600
O2          O  0.43962102  0.92721956  0.51209508    -0.78700
O3          O  0.51215410  0.94416867  0.56708281    -0.78700
O4          O  0.49128747  0.92975026  0.40730149    -0.78600
O5          O  0.44543973  0.97345830  0.59366586    -0.78700
O6          O  0.56079307  0.95923206  0.39278724    -0.78700
O7          O  0.40520062  0.94777746  0.44889736    -0.78600
O8          O  0.59789937  0.95401688  0.54564902    -0.78700
C9          C  0.60506660  0.92381787  0.51573473     1.11100
C10         C  0.40420698  0.92559323  0.48623373     1.10900
C11         C  0.48369491  0.95082917  0.60085446     1.11100
C12         C  0.52686140  0.93272848  0.38158355     1.11000
O13         O  0.55531835  0.05134311  0.42547996    -0.78600
O14         O  0.47220435  0.05507126  0.55117667    -0.78700
O15         O  0.60099443  0.03434613  0.51125159    -0.78600
O16         O  0.41969193  0.04226019  0.43688997    -0.78600
O17         O  0.39613041  0.01820410  0.50650079    -0.78700
O18         O  0.63179450  0.00017560  0.44915630    -0.78600
O19         O  0.49944906  0.02546505  0.37903666    -0.78600
O20         O  0.53574610  0.03557123  0.58599160    -0.78700
Co21       Co  0.56558821  0.99055183  0.45448743     1.51500
Co22       Co  0.45871320  0.99044684  0.52990866     1.51700
Co23       Co  0.54505359  0.99519614  0.53205182     1.51600
Co24       Co  0.45682626  0.98663757  0.42065896     1.51500
O25         O  0.49931639  0.99447999  0.47598317    -1.40600
C26         C  0.53569503  0.05090233  0.38641401     1.11000
C27         C  0.49913338  0.05943069  0.58552506     1.11100
C28         C  0.63625745  0.02649085  0.48411517     1.11000
C29         C  0.38902361  0.04121563  0.46906751     1.11000
O30         O  0.94338450  0.56343855  0.53055827    -0.78600
O31         O  0.92118616  0.42774412  0.50223944    -0.78700
O32         O  0.98517176  0.53725385  0.40511279    -0.78700
O33         O  0.94711697  0.47203923  0.59068010    -0.78600
O34         O  0.92573706  0.49691104  0.43311658    -0.78700
O35         O  0.97147257  0.53938325  0.61399487    -0.78700
O36         O  0.96408403  0.39124982  0.55135605    -0.78600
O37         O  0.98823466  0.59706404  0.47901347    -0.78700
C38         C  0.95324807  0.59850949  0.50709190     1.11100
C39         C  0.93030375  0.39067655  0.52381310     1.10900
C40         C  0.94168636  0.52712060  0.40531108     1.11100
C41         C  0.94904031  0.50331079  0.62166283     1.11000
O42         O  0.05734223  0.51230895  0.58874489    -0.78600
O43         O  0.01150087  0.45543144  0.40215010    -0.78700
O44         O  0.07996955  0.55962016  0.50282774    -0.78600
O45         O  0.05649838  0.41866419  0.52711864    -0.78600
O46         O  0.01094530  0.39114265  0.47225747    -0.78700
O47         O  0.03744554  0.59525088  0.55325899    -0.78600
O48         O  0.03319337  0.44509564  0.61151761    -0.78600
O49         O  0.07233591  0.49432490  0.42982784    -0.78700
Co50       Co  0.00146634  0.53775999  0.55468002     1.51500
Co51       Co  0.96859202  0.44676898  0.45565981     1.51700
Co52       Co  0.03047335  0.54296289  0.45723817     1.51600
Co53       Co  0.00125391  0.44790820  0.55325576     1.51500
O54         O  0.00084059  0.49355714  0.50073731    -1.40600
C55         C  0.05551369  0.48119504  0.61955994     1.11000
C56         C  0.05489975  0.46581350  0.40091061     1.11100
C57         C  0.07173495  0.59590102  0.52629086     1.11000
C58         C  0.04495707  0.38576997  0.50087387     1.11000
O59         O  0.39006277  0.53523546  0.03233356    -0.78600
O60         O  0.58454897  0.49496932  0.06246215    -0.78700
O61         O  0.50366549  0.43577916  0.07758181    -0.78700
O62         O  0.50937226  0.56482827  0.08436790    -0.78600
O63         O  0.55329102  0.41335302  0.02651132    -0.78700
O64         O  0.45809620  0.60040455  0.03985056    -0.78700
O65         O  0.60364360  0.56866239  0.05652298    -0.78600
O66         O  0.42175148  0.48908740  0.08433375    -0.78700
C67         C  0.38954885  0.51670410  0.07181142     1.11100
C68         C  0.61379325  0.52829647  0.07041634     1.10900
C69         C  0.52830041  0.40366596  0.06111300     1.11100
C70         C  0.48348236  0.59927554  0.07636340     1.11000
O71         O  0.48964786  0.57614384  0.94722589    -0.78600
O72         O  0.52556910  0.45401875  0.94314886    -0.78700
O73         O  0.39611978  0.45684099  0.99467611    -0.78600
O74         O  0.58613947  0.53653660  0.97119812    -0.78600
O75         O  0.61703010  0.46776115  0.97867216    -0.78700
O76         O  0.41765648  0.50846645  0.94271972    -0.78600
O77         O  0.53478071  0.60788904  0.99886445    -0.78600
O78         O  0.47637682  0.40938750  0.98359569    -0.78700
Co79       Co  0.44205648  0.55246158  0.99042302     1.51500
Co80       Co  0.55339782  0.47780709  0.00021149     1.51700
Co81       Co  0.45206759  0.45073229  0.03540455     1.51600
Co82       Co  0.54559765  0.54636997  0.02986952     1.51500
O83         O  0.48954770  0.50584213  0.01294258    -1.40600
C84         C  0.51043639  0.61171475  0.96248830     1.11000
C85         C  0.50149482  0.41713155  0.94758639     1.11100
C86         C  0.39103852  0.47525974  0.95545717     1.11000
C87         C  0.62150175  0.50938640  0.96573134     1.11000
C88         C  0.59471310  0.94305998  0.76700260     0.81700
N89         N  0.56454935  0.94300566  0.73038606    -0.76600
C90         C  0.57414463  0.91739940  0.69226862     0.84200
N91         N  0.61473061  0.89284791  0.69034476    -0.76500
C92         C  0.64473935  0.89172687  0.72667187     0.84300
N93         N  0.63455036  0.91676419  0.76530391    -0.78200
C94         C  0.74600465  0.80723802  0.75355668     0.81700
N95         N  0.77878510  0.81092330  0.71933454    -0.76600
C96         C  0.81423542  0.77942884  0.71565360     0.84200
N97         N  0.81682406  0.74432642  0.74684625    -0.76500
C98         C  0.78432426  0.74049873  0.78124139     0.84300
N99         N  0.74926916  0.77219597  0.78437641    -0.78200
C100        C  0.97763358  0.79114632  0.59281117     0.81700
N101        N  0.94091448  0.79027077  0.62326022    -0.76600
C102        C  0.91069581  0.75308033  0.62409927     0.84200
N103        N  0.91682444  0.71758357  0.59350842    -0.76500
C104        C  0.95243150  0.71899903  0.56206819     0.84300
N105        N  0.98296597  0.75531895  0.56284749    -0.78200
C106        C  0.79623250  0.61291805  0.93559036     0.81700
N107        N  0.75637944  0.58815982  0.94579984    -0.76600
C108        C  0.71545476  0.59645855  0.92263415     0.84200
N109        N  0.71449389  0.63012111  0.89012240    -0.76500
C110        C  0.75423978  0.65379306  0.87852775     0.84300
N111        N  0.79511189  0.64488805  0.90123064    -0.78200
C112        C  0.28592255  0.19519107  0.76413327     0.81700
N113        N  0.28334904  0.22893510  0.79638258    -0.76600
C114        C  0.24630262  0.25828956  0.79824109     0.84200
N115        N  0.21067813  0.25364345  0.76669321    -0.76500
C116        C  0.21265727  0.21914926  0.73403914     0.84300
N117        N  0.25043283  0.19023182  0.73307978    -0.78200
C118        C  0.28175778  0.40527474  0.92503103     0.81700
N119        N  0.27085356  0.37132883  0.89443484    -0.76600
C120        C  0.22593204  0.35465181  0.89059548     0.84200
N121        N  0.19193694  0.37128657  0.91964525    -0.76500
C122        C  0.20304319  0.40463336  0.95162724     0.84300
N123        N  0.24781673  0.42156759  0.95358176    -0.78200
C124        C  0.42398513  0.05486345  0.78183941     0.81700
N125        N  0.45575886  0.04711131  0.74739446    -0.76600
C126        C  0.45234205  0.07092871  0.70688634     0.84200
N127        N  0.41653353  0.10155008  0.70087488    -0.76500
C128        C  0.38517966  0.10955776  0.73519344     0.84300
N129        N  0.38961249  0.08651031  0.77550929    -0.78200
C130        C  0.06938674  0.20477553  0.58751394     0.81700
N131        N  0.09661910  0.20447487  0.62649502    -0.76600
C132        C  0.11793466  0.24441841  0.64150901     0.84200
N133        N  0.11210468  0.28395561  0.61727073    -0.76500
C134        C  0.08662282  0.28475857  0.57780246     0.84300
N135        N  0.06478304  0.24515078  0.56325902    -0.78200
O136        O  0.45679181  0.01727716  0.91821850    -0.78600
O137        O  0.45956739  0.96539493  0.04994310    -0.78700
O138        O  0.47467959  0.91326430  0.97902223    -0.78700
O139        O  0.46193312  0.07474274  0.03983136    -0.78600
O140        O  0.50624512  0.88435792  0.04139062    -0.78700
O141        O  0.47219235  0.10028740  0.96920925    -0.78700
O142        O  0.49387199  0.01035311  0.09830543    -0.78600
O143        O  0.49606437  0.95585688  0.89690391    -0.78700
C144        C  0.46528228  0.98669591  0.88816448     1.11100
C145        C  0.46365752  0.97915013  0.09049144     1.10900
C146        C  0.47834620  0.87931429  0.00742985     1.11100
C147        C  0.45379527  0.10378469  0.00897619     1.11000
O148        O  0.56973508  0.08901436  0.94950082    -0.78600
O149        O  0.58429169  0.92114422  0.00127503    -0.78700
O150        O  0.59193362  0.97442521  0.92911611    -0.78600
O151        O  0.58818057  0.02749916  0.06482441    -0.78600
O152        O  0.55964455  0.95908518  0.08271887    -0.78700
O153        O  0.55259019  0.02182057  0.88685853    -0.78600
O154        O  0.55402661  0.10808666  0.02098577    -0.78600
O155        O  0.55624283  0.88722398  0.93959404    -0.78700
Co156      Co  0.51287353  0.05344247  0.93554383     1.51500
Co157      Co  0.52153334  0.94741194  0.02368786     1.51700
Co158      Co  0.53347124  0.94827213  0.95676516     1.51600
Co159      Co  0.52540987  0.05141900  0.05070389     1.51500
O160        O  0.52392537  0.00999017  0.99141239    -1.40600
C161        C  0.56964734  0.11837176  0.98143261     1.11000
C162        C  0.58310104  0.88558205  0.97476789     1.11100
C163        C  0.58505550  0.99235886  0.89047146     1.11000
C164        C  0.58730936  0.99316772  0.09157612     1.11000
C165        C  0.27921592  0.72631888  0.78470835     0.81700
N166        N  0.28976042  0.75896094  0.75271743    -0.76600
C167        C  0.26086124  0.76609430  0.71633518     0.84200
N168        N  0.22112019  0.73981591  0.71165013    -0.76500
C169        C  0.21016433  0.70710590  0.74359902     0.84300
N170        N  0.23952828  0.70022663  0.77993648    -0.78200
C171        C  0.41757387  0.78592778  0.93515757     0.81700
N172        N  0.38387704  0.78742351  0.90221636    -0.76600
C173        C  0.37220655  0.74935594  0.87754900     0.84200
N174        N  0.39570024  0.70934096  0.88480862    -0.76500
C175        C  0.43097861  0.70757405  0.91651851     0.84300
N176        N  0.44184606  0.74597094  0.94205197    -0.78200
C177        C  0.22683097  0.92360052  0.57923443     0.81700
N178        N  0.26961990  0.92602237  0.55803809    -0.76600
C179        C  0.30447287  0.89597406  0.57018867     0.84200
N180        N  0.29630499  0.86395378  0.60361077    -0.76500
C181        C  0.25311391  0.86064211  0.62370266     0.84300
N182        N  0.21874423  0.89016318  0.61095969    -0.78200
C183        C  0.08547236  0.55689392  0.71773269     0.81700
N184        N  0.04909883  0.54857986  0.74708527    -0.76600
C185        C  0.04277748  0.57619263  0.78455012     0.84200
N186        N  0.07395545  0.61149277  0.79288513    -0.76500
C187        C  0.10974681  0.62013774  0.76275164     0.84300
N188        N  0.11475183  0.59299480  0.72519910    -0.78200
C189        C  0.76784472  0.29575929  0.20979198     0.81700
N190        N  0.74528831  0.25505382  0.20098947    -0.76600
C191        C  0.74909628  0.21895192  0.23073677     0.84200
N192        N  0.77726736  0.22318549  0.26865639    -0.76500
C193        C  0.80078954  0.26363202  0.27701257     0.84300
N194        N  0.79463217  0.30006327  0.24828790    -0.78200
C195        C  0.94166435  0.21815438  0.43349025     0.81700
N196        N  0.93615397  0.25836607  0.45758794    -0.76600
C197        C  0.90693523  0.29197586  0.44147308     0.84200
N198        N  0.88251667  0.28473288  0.40213354    -0.76500
C199        C  0.88615181  0.24431842  0.37869722     0.84300
N200        N  0.91599197  0.21110793  0.39433480    -0.78200
C201        C  0.77593717  0.43169245  0.04809898     0.81700
N202        N  0.74036324  0.46002148  0.06129207    -0.76600
C203        C  0.71227955  0.44880087  0.09754510     0.84200
N204        N  0.72031981  0.40911570  0.12103614    -0.76500
C205        C  0.75635245  0.38081248  0.10886161     0.84300
N206        N  0.78378178  0.39192698  0.07198065    -0.78200
C207        C  0.60217164  0.06619831  0.27158433     0.81700
N208        N  0.63347077  0.10125505  0.27990074    -0.76600
C209        C  0.66497547  0.11455052  0.24699467     0.84200
N210        N  0.66482366  0.09258576  0.20550052    -0.76500
C211        C  0.63467072  0.05680779  0.19704555     0.84300
N212        N  0.60326163  0.04384390  0.23017526    -0.78200
O213        O  0.92844958  0.56945454  0.99079999    -0.78600
O214        O  0.06059796  0.56776292  0.01387386    -0.78700
O215        O  0.94798865  0.51651698  0.11138843    -0.78700
O216        O  0.00989078  0.55604212  0.92947117    -0.78600
O217        O  0.00320188  0.56689647  0.09014547    -0.78700
O218        O  0.93989829  0.54281741  0.89930834    -0.78700
O219        O  0.09085605  0.52162174  0.96456625    -0.78600
O220        O  0.88957817  0.52252965  0.03732210    -0.78700
C221        C  0.89120146  0.55913876  0.01257627     1.11100
C222        C  0.09616673  0.55552577  0.99158863     1.10900
C223        C  0.96869125  0.55542138  0.11571092     1.11100
C224        C  0.98011725  0.56262815  0.89700812     1.11000
O225        O  0.97313661  0.45807016  0.92203395    -0.78600
O226        O  0.03417497  0.47621829  0.11030102    -0.78700
O227        O  0.92480020  0.43136901  0.00680030    -0.78600
O228        O  0.04740795  0.43381979  0.98169911    -0.78600
O229        O  0.09049515  0.47129966  0.03350162    -0.78700
O230        O  0.89226583  0.48132686  0.96212656    -0.78600
O231        O  0.04304137  0.47461918  0.89482449    -0.78600
O232        O  0.98118572  0.42701049  0.08318800    -0.78700
Co233      Co  0.95493537  0.51607177  0.95861179     1.51500
Co234      Co  0.04434590  0.52065673  0.05933687     1.51700
Co235      Co  0.93882707  0.47475207  0.05716827     1.51600
Co236      Co  0.02601018  0.49279250  0.95707040     1.51500
O237        O  0.99079911  0.50102854  0.01742393    -1.40600
C238        C  0.00255031  0.45681618  0.88856725     1.11000
C239        C  0.01409143  0.43704874  0.11099656     1.11100
C240        C  0.88950310  0.44351277  0.98407448     1.11000
C241        C  0.08459132  0.43717667  0.00527502     1.11000
C242        C  0.19044899  0.04929066  0.38261810     0.81700
N243        N  0.22578404  0.03269515  0.41000768    -0.76600
C244        C  0.26243185  0.06079547  0.42372701     0.84200
N245        N  0.26484276  0.10483310  0.40711877    -0.76500
C246        C  0.22997875  0.12142766  0.37961371     0.84300
N247        N  0.19342634  0.09351384  0.36765747    -0.78200
C248        C  0.27309600  0.20316601  0.28632263     0.81700
N249        N  0.30636014  0.19823423  0.25286184    -0.76600
C250        C  0.30505212  0.22478944  0.21439869     0.84200
N251        N  0.27028486  0.25630177  0.20957940    -0.76500
C252        C  0.23729151  0.26206596  0.24268582     0.84300
N253        N  0.23849461  0.23529759  0.28115363    -0.78200
C254        C  0.08632319  0.38728633  0.20723387     0.81700
N255        N  0.12227199  0.35757618  0.21514779    -0.76600
C256        C  0.13805383  0.35045283  0.25890506     0.84200
N257        N  0.11919982  0.37497183  0.29437498    -0.76500
C258        C  0.08417112  0.40570903  0.28637543     0.84300
N259        N  0.06723085  0.41092297  0.24301292    -0.78200
C260        C  0.44990578  0.29908299  0.08847465     0.81700
N261        N  0.46266834  0.26457333  0.05892625    -0.76600
C262        C  0.43652038  0.22471777  0.05652062     0.84200
N263        N  0.39828318  0.21940512  0.08450236    -0.76500
C264        C  0.38560813  0.25394717  0.11361334     0.84300
N265        N  0.41095495  0.29366129  0.11485015    -0.78200
C266        C  0.75142957  0.30371876  0.71891154     0.81700
N267        N  0.71670677  0.30233348  0.75128365    -0.76600
C268        C  0.68278149  0.26891937  0.74882072     0.84200
N269        N  0.68428735  0.23687009  0.71484100    -0.76500
C270        C  0.71894147  0.23794679  0.68299815     0.84300
N271        N  0.75253510  0.27139910  0.68500132    -0.78200
C272        C  0.89887144  0.43545506  0.71971127     0.81700
N273        N  0.92698512  0.44019836  0.75746381    -0.76600
C274        C  0.91484236  0.41764053  0.79688396     0.84200
N275        N  0.87475399  0.39153734  0.79817089    -0.76500
C276        C  0.84769050  0.38641664  0.76008966     0.84300
N277        N  0.86036959  0.40806272  0.72102323    -0.78200
C278        C  0.54674986  0.30155985  0.90955038     0.81700
N279        N  0.55145124  0.25877949  0.92849268    -0.76600
C280        C  0.58194312  0.22792429  0.90963711     0.84200
N281        N  0.60709695  0.23989272  0.87198231    -0.76500
C282        C  0.60370593  0.28277286  0.85370894     0.84300
N283        N  0.57368820  0.31369380  0.87265034    -0.78200
C284        C  0.72587376  0.08925482  0.55644289     0.81700
N285        N  0.72555258  0.12836271  0.58193960    -0.76600
C286        C  0.76358918  0.14065064  0.60731846     0.84200
N287        N  0.80189302  0.11297375  0.60779746    -0.76500
C288        C  0.80173103  0.07258860  0.58379317     0.84300
N289        N  0.76371689  0.06079880  0.55767985    -0.78200
C290        C  0.69874845  0.77895428  0.29251032     0.81700
N291        N  0.66369024  0.77856617  0.26044758    -0.76600
C292        C  0.66759846  0.75229863  0.22170080     0.84200
N293        N  0.70596172  0.72512471  0.21593665    -0.76500
C294        C  0.74013760  0.72344696  0.24855240     0.84300
N295        N  0.73685550  0.75093429  0.28668011    -0.78200
C296        C  0.69582592  0.88642592  0.46171840     0.81700
N297        N  0.73105254  0.91839879  0.46779284    -0.76600
C298        C  0.76512432  0.92482315  0.43502648     0.84200
N299        N  0.76427966  0.89785393  0.39649401    -0.76500
C300        C  0.72936590  0.86596248  0.38979280     0.84300
N301        N  0.69586885  0.85995942  0.42286226    -0.78200
C302        C  0.89675116  0.60283152  0.21567632     0.81700
N303        N  0.91967493  0.58442607  0.25216819    -0.76600
C304        C  0.90453099  0.59232243  0.29579753     0.84200
N305        N  0.86730518  0.62081685  0.30320013    -0.76500
C306        C  0.84471475  0.64055274  0.26689178     0.84300
N307        N  0.85883932  0.63040131  0.22308710    -0.78200
C308        C  0.57426892  0.77235514  0.03364289     0.81700
N309        N  0.53612930  0.74430027  0.03883209    -0.76600
C310        C  0.53086845  0.71749270  0.07677119     0.84200
N311        N  0.56431904  0.71902086  0.11034088    -0.76500
C312        C  0.60264940  0.74728188  0.10578126     0.84300
N313        N  0.60777064  0.77356069  0.06722377    -0.78200
C314        C  0.24563164  0.72350190  0.30608975     0.81700
N315        N  0.27490385  0.76099414  0.30460950    -0.76600
C316        C  0.30447395  0.76731942  0.26813706     0.84200
N317        N  0.30486716  0.73575048  0.23336201    -0.76500
C318        C  0.27559538  0.69845029  0.23467166     0.84300
N319        N  0.24627892  0.69240245  0.27112129    -0.78200
C320        C  0.46310243  0.88474663  0.27964301     0.81700
N321        N  0.47423825  0.91506915  0.24570407    -0.76600
C322        C  0.44894066  0.91553578  0.20589670     0.84200
N323        N  0.41220835  0.88512311  0.20025692    -0.76500
C324        C  0.40043892  0.85546339  0.23491340     0.84300
N325        N  0.42594992  0.85583986  0.27427001    -0.78200
C326        C  0.11256415  0.69613017  0.45278213     0.81700
N327        N  0.14822665  0.70221605  0.42233384    -0.76600
C328        C  0.15563098  0.74380018  0.40246512     0.84200
N329        N  0.12632039  0.77909941  0.41241357    -0.76500
C330        C  0.08924353  0.77361201  0.44152136     0.84300
N331        N  0.08229619  0.73180014  0.46242974    -0.78200
C332        C  0.26640546  0.55813856  0.09374205     0.81700
N333        N  0.26928662  0.58480031  0.13222565    -0.76600
C334        C  0.23284686  0.61278513  0.14384682     0.84200
N335        N  0.19393188  0.61440230  0.11672804    -0.76500
C336        C  0.19163594  0.58915673  0.07733381     0.84300
N337        N  0.22786428  0.56091965  0.06612549    -0.78200
O338        O  0.99173085  0.94900118  0.57101294    -0.78600
O339        O  0.04439266  0.04066615  0.55934389    -0.78700
O340        O  0.11335938  0.97113402  0.50656548    -0.78700
O341        O  0.92808545  0.00838493  0.55275398    -0.78600
O342        O  0.12727765  0.04671657  0.51354598    -0.78700
O343        O  0.89791856  0.93914878  0.54403793    -0.78700
O344        O  0.98765055  0.08472481  0.53776572    -0.78600
O345        O  0.04654751  0.90700339  0.54017119    -0.78700
C346        C  0.01813325  0.91447978  0.57329911     1.11100
C347        C  0.02338396  0.07861897  0.56303765     1.10900
C348        C  0.14026534  0.00484163  0.51953538     1.11100
C349        C  0.89243458  0.98119099  0.55576057     1.11000
O350        O  0.92306229  0.94068244  0.45382396    -0.78600
O351        O  0.09126285  0.02724036  0.43132733    -0.78700
O352        O  0.01074502  0.89792096  0.44634094    -0.78600
O353        O  0.97364335  0.07432703  0.44147176    -0.78600
O354        O  0.04297049  0.09408984  0.47147220    -0.78700
O355        O  0.96862963  0.87840363  0.50396302    -0.78600
O356        O  0.89914415  0.01147562  0.45709012    -0.78600
O357        O  0.07644087  0.95522742  0.41518250    -0.78700
Co358      Co  0.95764870  0.94805286  0.51198886     1.51500
Co359      Co  0.06405050  0.02970060  0.49492639     1.51700
Co360      Co  0.05735009  0.93729668  0.47748985     1.51600
Co361      Co  0.95212470  0.04002520  0.49559413     1.51500
O362        O  0.00628748  0.99005973  0.48169700    -1.40600
C363        C  0.89282845  0.97016775  0.44372871     1.11000
C364        C  0.09500961  0.99318724  0.40468955     1.11100
C365        C  0.99466853  0.86596673  0.47088767     1.11000
C366        C  0.00651722  0.10362307  0.44673587     1.11000
C367        C  0.05944590  0.81513693  0.44872143    -0.14900
C368        C  0.01572872  0.81871643  0.46707003    -0.30100
H369        H  0.07600610  0.84667042  0.43592495     0.14100
H370        H  0.99766948  0.78865067  0.48101682     0.14700
C371        C  0.27503644  0.66525781  0.19622665    -0.14900
C372        C  0.23538984  0.64238706  0.18485559    -0.30100
H373        H  0.30631987  0.66219925  0.17483513     0.14100
H374        H  0.20285532  0.64907932  0.20342746     0.14700
C375        C  0.21250295  0.71585442  0.34462323    -0.14900
C376        C  0.19401862  0.75096415  0.36884429    -0.30100
H377        H  0.19949773  0.68092446  0.35006177     0.14100
H378        H  0.20429118  0.78620885  0.36088758     0.14700
C379        C  0.33852604  0.80619540  0.26857285    -0.14900
C380        C  0.36085016  0.82209598  0.23063898    -0.30100
H381        H  0.34653464  0.82154164  0.30198284     0.14100
H382        H  0.35105177  0.80941888  0.19663553     0.14700
C383        C  0.84806476  0.95388388  0.42185269    -0.14900
C384        C  0.80651576  0.95588256  0.44503349    -0.30100
H385        H  0.85111403  0.93012601  0.39294062     0.14100
H386        H  0.80490437  0.97655799  0.47633705     0.14700
C387        C  0.62997201  0.75254856  0.18641063    -0.14900
C388        C  0.63985973  0.74789157  0.14131031    -0.30100
H389        H  0.59387489  0.75827192  0.19735652     0.14100
H390        H  0.67629928  0.74672652  0.12996942     0.14700
C391        C  0.78007006  0.69156840  0.24117900    -0.14900
C392        C  0.80590233  0.67371567  0.27555658    -0.30100
H393        H  0.78646409  0.68024862  0.20602023     0.14100
H394        H  0.79812731  0.68324128  0.31096981     0.14700
C395        C  0.69491282  0.80999493  0.33319764    -0.14900
C396        C  0.73222711  0.83393359  0.34971589    -0.30100
H397        H  0.66014861  0.81586939  0.34768015     0.14100
H398        H  0.76605266  0.83083155  0.33247026     0.14700
C399        C  0.84461171  0.04469148  0.58331922    -0.14900
C400        C  0.84644814  0.00052254  0.56883254    -0.30100
H401        H  0.87705475  0.06287963  0.59261577     0.02700
H402        H  0.81432896  0.98102777  0.56137814     0.14700
C403        C  0.72122205  0.20078282  0.64893414    -0.14900
C404        C  0.76243423  0.18261920  0.63574392    -0.30100
H405        H  0.68811920  0.18438104  0.63879270     0.14100
H406        H  0.79548948  0.19643638  0.64922612     0.14700
C407        C  0.64792209  0.26224471  0.78539175    -0.14900
C408        C  0.63375980  0.29545368  0.81438076    -0.30100
H409        H  0.63348358  0.22753453  0.78881549     0.14100
H410        H  0.64481891  0.33111971  0.80972694     0.14700
C411        C  0.78914208  0.33851309  0.72053673    -0.14900
C412        C  0.80601908  0.35592849  0.76018680    -0.30100
H413        H  0.80663356  0.34653247  0.68812265     0.14100
H414        H  0.79112855  0.34512728  0.79297224     0.14700
C415        C  0.34392821  0.25016980  0.14314634    -0.14900
C416        C  0.34200687  0.22059870  0.17870320    -0.30100
H417        H  0.31800884  0.27738416  0.14004195     0.14100
H418        H  0.36985037  0.19549582  0.18341443     0.14700
C419        C  0.17462685  0.31559017  0.26855135    -0.14900
C420        C  0.20004940  0.29640244  0.23467757    -0.30100
H421        H  0.18130988  0.30618932  0.30411725     0.14100
H422        H  0.19498316  0.30780472  0.19943564     0.14700
C423        C  0.16254202  0.01745957  0.35284147    -0.14900
C424        C  0.12082283  0.99611235  0.36084344    -0.30100
H425        H  0.17667405  0.01342172  0.31829294     0.14100
H426        H  0.10734552  0.97418813  0.33328021     0.14700
C427        C  0.23584189  0.16492830  0.35376265    -0.14900
C428        C  0.27316417  0.17072780  0.32574287    -0.30100
H429        H  0.20484680  0.18637382  0.34920113     0.14100
H430        H  0.30222036  0.14640809  0.32779740     0.14700
C431        C  0.98619010  0.43936605  0.84333744    -0.14900
C432        C  0.94155885  0.42337720  0.83988874    -0.30100
H433        H  0.00736001  0.44554145  0.81285007     0.14100
H434        H  0.92169961  0.41599919  0.87098437     0.14700
C435        C  0.90951597  0.58776548  0.16867772    -0.14900
C436        C  0.95474350  0.58536320  0.15469239    -0.30100
H437        H  0.88160256  0.57392322  0.14695496     0.14100
H438        H  0.98238215  0.60178164  0.17492947     0.14700
C439        C  0.07221721  0.39901439  0.15988104    -0.14900
C440        C  0.02678128  0.40533075  0.14845725    -0.30100
H441        H  0.09993119  0.40893923  0.13591600     0.14100
H442        H  0.99886502  0.39347730  0.17128157     0.14700
C443        C  0.14366504  0.56819112  0.00856835    -0.14900
C444        C  0.14835332  0.59052565  0.04922074    -0.30100
H445        H  0.17388096  0.55200098  0.99263134     0.14100
H446        H  0.11793792  0.60656727  0.06498926     0.14700
C447        C  0.80839541  0.44731709  0.01116532    -0.14900
C448        C  0.84426581  0.42123998  0.99599911    -0.30100
H449        H  0.80730555  0.48359972  0.00204811     0.14100
H450        H  0.84580000  0.38530089  0.00640255     0.14700
C451        C  0.99699523  0.15072045  0.42888468    -0.14900
C452        C  0.96941716  0.17968390  0.45362148    -0.30100
H453        H  0.00247068  0.15715093  0.39245445     0.14100
H454        H  0.96246755  0.17200703  0.48949871     0.14700
C455        C  0.69820437  0.15354548  0.25624750    -0.14900
C456        C  0.72053054  0.17661858  0.22223514    -0.30100
H457        H  0.70212613  0.16540297  0.29158445     0.14100
H458        H  0.71356330  0.16725100  0.18662371     0.14700
C459        C  0.75890237  0.33707681  0.18139044    -0.14900
C460        C  0.76541881  0.33812411  0.13551226    -0.30100
H461        H  0.74922961  0.36859615  0.19937546     0.14100
H462        H  0.77966641  0.30816165  0.11787757     0.14700
C463        C  0.83115216  0.27009475  0.31803495    -0.14900
C464        C  0.85587861  0.23575224  0.33777849    -0.30100
H465        H  0.83524237  0.30518720  0.33073364     0.14100
H466        H  0.85415198  0.20113911  0.32352193     0.14700
C467        C  0.00430020  0.56474176  0.81725556    -0.14900
C468        C  0.99702648  0.58827594  0.85655582    -0.30100
H469        H  0.98586339  0.53212659  0.81192074     0.14100
H470        H  0.01743796  0.61952154  0.86307448     0.14700
C471        C  0.18581920  0.95095370  0.56438539    -0.14900
C472        C  0.18567295  0.99132448  0.54099121    -0.30100
H473        H  0.15204709  0.93483710  0.57237259     0.14100
H474        H  0.21780210  0.01086446  0.53472001     0.14700
C475        C  0.16885101  0.67666739  0.73648218    -0.14900
C476        C  0.14530054  0.65659492  0.77152081    -0.30100
H477        H  0.15803591  0.66987388  0.70115763     0.14100
H478        H  0.15357486  0.66572421  0.80693050     0.14700
C479        C  0.27390863  0.80170394  0.68205695    -0.14900
C480        C  0.24134449  0.82370219  0.65698073    -0.30100
H481        H  0.31068077  0.81188436  0.67936456     0.14100
H482        H  0.20431649  0.81578577  0.66241240     0.14700
C483        C  0.31130715  0.71889470  0.82391220    -0.14900
C484        C  0.33769561  0.75399413  0.84013414    -0.30100
H485        H  0.31255558  0.68511230  0.84006540     0.14100
H486        H  0.33308500  0.78843268  0.82601235     0.14700
C487        C  0.60319817  0.84213369  0.99240081    -0.14900
C488        C  0.57550390  0.80423821  0.99369948    -0.30100
H489        H  0.63149681  0.84557574  0.01753594     0.14100
H490        H  0.54570587  0.80197461  0.97010636     0.14700
C491        C  0.45525546  0.83449198  0.99676973    -0.14900
C492        C  0.43075917  0.82997529  0.95742868    -0.30100
H493        H  0.46369405  0.80424074  0.01727200     0.14100
H494        H  0.42140647  0.86092580  0.93827525     0.14700
C495        C  0.60789724  0.99881439  0.13828473    -0.14900
C496        C  0.63172736  0.03777905  0.14964299    -0.30100
H497        H  0.59568798  0.97562883  0.16523708     0.14100
H498        H  0.64506715  0.06001214  0.12237077     0.14700
C499        C  0.44167197  0.95218882  0.12829185    -0.14900
C500        C  0.46271818  0.94915946  0.16973704    -0.30100
H501        H  0.41210036  0.92954018  0.12005763     0.14100
H502        H  0.49361018  0.97055299  0.17676143     0.14700
C503        C  0.42819400  0.14566149  0.02310313    -0.14900
C504        C  0.45143715  0.18648914  0.02562394    -0.30100
H505        H  0.39580316  0.14082585  0.04263390     0.14100
H506        H  0.48537978  0.19014755  0.00846473     0.14700
C507        C  0.57941494  0.16733203  0.97016268    -0.14900
C508        C  0.58528603  0.18004513  0.92606231    -0.30100
H509        H  0.57465121  0.19349337  0.99668694     0.14100
H510        H  0.59141268  0.15387885  0.89980378     0.14700
C511        C  0.04637189  0.11884422  0.58765172    -0.14900
C512        C  0.04339947  0.16252319  0.57060501    -0.30100
H513        H  0.07013699  0.11195565  0.61595156     0.14100
H514        H  0.02190228  0.16771643  0.54054813     0.14700
C515        C  0.42859612  0.03484502  0.82857537    -0.14900
C516        C  0.45079207  0.99527700  0.83955557    -0.30100
H517        H  0.41400296  0.05581835  0.85617082     0.14100
H518        H  0.46449140  0.97315650  0.81244663     0.14700
C519        C  0.12414073  0.40729868  0.99046084    -0.14900
C520        C  0.16716573  0.42548980  0.98275843    -0.30100
H521        H  0.11528943  0.37395734  0.97502096     0.14100
H522        H  0.17548316  0.45951185  0.99700582     0.14700
C523        C  0.17556513  0.21274733  0.69803454    -0.14900
C524        C  0.14742527  0.24708704  0.68393711    -0.30100
H525        H  0.17515316  0.18034027  0.67903162     0.14100
H526        H  0.15076717  0.28068497  0.70048065     0.14700
C527        C  0.32592740  0.16281958  0.76603501    -0.14900
C528        C  0.34615614  0.14286901  0.72913168    -0.30100
H529        H  0.34080331  0.15667949  0.80003568     0.14100
H530        H  0.33452559  0.15160497  0.69451334     0.14700
C531        C  0.25018206  0.29722439  0.83180522    -0.14900
C532        C  0.21491669  0.31805156  0.85523985    -0.30100
H533        H  0.28623107  0.30683518  0.84030899     0.14100
H534        H  0.17863104  0.30733651  0.84960129     0.14700
C535        C  0.84598798  0.58125518  0.99939202    -0.14900
C536        C  0.84184992  0.60372288  0.95888675    -0.30100
H537        H  0.81438763  0.57158440  0.01825503     0.14100
H538        H  0.87348607  0.61332580  0.94003160     0.14700
C539        C  0.00243608  0.87475972  0.60265665    -0.14900
C540        C  0.01109408  0.83101752  0.58844315    -0.30100
H541        H  0.97327693  0.88071603  0.62612585     0.14100
H542        H  0.03953513  0.82569533  0.56398243     0.14700
C543        C  0.78824824  0.70310363  0.81611018    -0.14900
C544        C  0.75151174  0.69034039  0.84286104    -0.30100
H545        H  0.82162051  0.68519815  0.81926315     0.14100
H546        H  0.71731876  0.70605974  0.83730203     0.14700
C547        C  0.85097417  0.78500820  0.67922864    -0.14900
C548        C  0.87327134  0.74871048  0.65994291    -0.30100
H549        H  0.85864900  0.81971249  0.66685646     0.14100
H550        H  0.86251017  0.71390717  0.66967563     0.14700
C551        C  0.58271716  0.97170188  0.80794696    -0.14900
C552        C  0.60622086  0.97118881  0.84847930    -0.30100
H553        H  0.55081080  0.99201367  0.80530220     0.14100
H554        H  0.63690659  0.94935872  0.85236567     0.14700
C555        C  0.68803770  0.86333236  0.72267364    -0.14900
C556        C  0.70689272  0.84088520  0.75861532    -0.30100
H557        H  0.70180894  0.85691043  0.68840017     0.14100
H558        H  0.69034123  0.84399680  0.79216140     0.14700
C559        C  0.51534657  0.35462599  0.06956836    -0.14900
C560        C  0.47443978  0.34433698  0.09069381    -0.30100
H561        H  0.53461492  0.32771691  0.05154515     0.14100
H562        H  0.45541049  0.37176433  0.10822717     0.14700
C563        C  0.51184192  0.37916274  0.91560410    -0.14900
C564        C  0.51579278  0.33578965  0.93174967    -0.30100
H565        H  0.52747604  0.38823482  0.88271106     0.14100
H566        H  0.50165626  0.32709993  0.96539669     0.14700
C567        C  0.66073032  0.51699059  0.08894892    -0.14900
C568        C  0.66834454  0.47447053  0.10605851    -0.30100
H569        H  0.69030081  0.53836190  0.07804111     0.14100
H570        H  0.63866898  0.45424553  0.11878194     0.14700
C571        C  0.66691995  0.52805156  0.94774245    -0.14900
C572        C  0.67064830  0.57265267  0.93457749    -0.30100
H573        H  0.69811239  0.50642049  0.94884566     0.14100
H574        H  0.63883285  0.59324605  0.93169041     0.14700
C575        C  0.49528777  0.64298131  0.10047639    -0.14900
C576        C  0.49220922  0.68289905  0.07699216    -0.30100
H577        H  0.52025088  0.64068475  0.12878095     0.14100
H578        H  0.46809232  0.68473900  0.04793341     0.14700
C579        C  0.45553764  0.66315017  0.92291971    -0.14900
C580        C  0.49569710  0.65820443  0.94714485    -0.30100
H581        H  0.43812595  0.63282177  0.90881450     0.14100
H582        H  0.51326174  0.68823089  0.96157427     0.14700
C583        C  0.34784438  0.52649549  0.10022518    -0.14900
C584        C  0.30645132  0.53054453  0.07780973    -0.30100
H585        H  0.35197670  0.53694539  0.13592321     0.14100
H586        H  0.30374738  0.51768570  0.04263838     0.14700
C587        C  0.34934344  0.46052735  0.92821538    -0.14900
C588        C  0.33146892  0.41756075  0.93392733    -0.30100
H589        H  0.32988265  0.48622869  0.90909187     0.14100
H590        H  0.35212610  0.39178110  0.95178020     0.14700
C591        C  0.08334916  0.44514900  0.36331898    -0.14900
C592        C  0.06145707  0.43118148  0.32426602    -0.30100
H593        H  0.12099316  0.44071339  0.36763210     0.14100
H594        H  0.02456600  0.43945849  0.31920635     0.14700
C595        C  0.91110901  0.54952660  0.37032846    -0.14900
C596        C  0.93101456  0.57159467  0.33412280    -0.30100
H597        H  0.87308265  0.54658944  0.37305106     0.14100
H598        H  0.96901003  0.57097623  0.32988214     0.14700
C599        C  0.07057959  0.49106254  0.66651449    -0.14900
C600        C  0.09070835  0.53193308  0.67454210    -0.30100
H601        H  0.05581790  0.47079272  0.69436641     0.14100
H602        H  0.10673503  0.55095549  0.64653020     0.14700
C603        C  0.93056144  0.49456388  0.66760175    -0.14900
C604        C  0.91163072  0.45319651  0.67507355    -0.30100
H605        H  0.93735270  0.51874215  0.69567666     0.14100
H606        H  0.90350013  0.43032851  0.64631251     0.14700
C607        C  0.06120884  0.33821334  0.51287210    -0.14900
C608        C  0.08084007  0.33037462  0.55467599    -0.30100
H609        H  0.04982115  0.30925897  0.49170101     0.14100
H610        H  0.09148461  0.35996313  0.57546223     0.14700
C611        C  0.90330866  0.33768498  0.46379957    -0.14900
C612        C  0.91560428  0.34468693  0.50763649    -0.30100
H613        H  0.89378743  0.36681818  0.44241721     0.14100
H614        H  0.92547530  0.31531445  0.52856781     0.14700
C615        C  0.93329193  0.64296088  0.52368318    -0.14900
C616        C  0.96147323  0.68039910  0.52898763    -0.30100
H617        H  0.90016664  0.64154923  0.54226109     0.14100
H618        H  0.99523070  0.68095008  0.51160383     0.14700
C619        C  0.09012693  0.64155407  0.51368520    -0.14900
C620        C  0.10588772  0.64938590  0.47125150    -0.30100
H621        H  0.08237630  0.67065477  0.53620059     0.14100
H622        H  0.11398196  0.62044103  0.44866761     0.14700
C623        C  0.48555518  0.06156751  0.66859570    -0.14900
C624        C  0.48230669  0.08295240  0.62740900    -0.30100
H625        H  0.50935389  0.03239213  0.67252656     0.14100
H626        H  0.45719969  0.11089156  0.62289582     0.14700
C627        C  0.54405407  0.91837306  0.65075155    -0.14900
C628        C  0.50080399  0.93782738  0.64734238    -0.30100
H629        H  0.56076214  0.90469132  0.62009455     0.14100
H630        H  0.48266473  0.95041791  0.67759813     0.14700
C631        C  0.30322939  0.04088853  0.44998203    -0.14900
C632        C  0.34338550  0.06492631  0.45963055    -0.30100
H633        H  0.30230484  0.00400804  0.45700359     0.14100
H634        H  0.34555066  0.10108545  0.44984023     0.14700
C635        C  0.35793684  0.90942926  0.50397245    -0.14900
C636        C  0.35168383  0.89857008  0.54862438    -0.30100
H637        H  0.32733709  0.91371036  0.48207395     0.14100
H638        H  0.38198101  0.89303374  0.57057402     0.14700
C639        C  0.56096393  0.07359918  0.34767609    -0.14900
C640        C  0.56717026  0.05140998  0.30704149    -0.30100
H641        H  0.58170492  0.10425713  0.35527662     0.14100
H642        H  0.54795543  0.01954327  0.30057224     0.14700
C643        C  0.48562315  0.88668061  0.32496507    -0.14900
C644        C  0.52289761  0.91373473  0.33485474    -0.30100
H645        H  0.46615872  0.87023445  0.35276954     0.14100
H646        H  0.54384232  0.92920656  0.30763479     0.14700
C647        C  0.68185853  0.04663103  0.49664454    -0.14900
C648        C  0.68315110  0.07687483  0.53165549    -0.30100
H649        H  0.71392087  0.03283700  0.48178398     0.14100
H650        H  0.65084213  0.09202293  0.54471723     0.14700
C651        C  0.63534286  0.88432785  0.52725882    -0.14900
C652        C  0.67174155  0.86711552  0.50281120    -0.30100
H653        H  0.62766762  0.86778166  0.55998380     0.14100
H654        H  0.68792606  0.83609825  0.51647153     0.14700
loop_ 
_geom_bond_atom_site_label_1 
_geom_bond_atom_site_label_2 
_geom_bond_distance 
_geom_bond_site_symmetry_2 
_ccdc_geom_bond_type 
O1            C9   1.268       .  A
O1          Co21   2.026       .  S
O2           C10   1.255       .  A
O2          Co22   1.971       .  S
O3           C11   1.285       .  A
O3          Co23   2.019       .  S
O4           C12   1.258       .  A
O4          Co24   1.957       .  S
O5           C11   1.288       .  A
O5          Co22   1.953       .  S
O6           C12   1.268       .  A
O6          Co21   2.009       .  S
O7           C10   1.262       .  A
O7          Co24   2.015       .  S
O8            C9   1.247       .  A
O8          Co23   1.962       .  S
C9          C651   1.473       .  S
C10         C635   1.483       .  S
C11         C628   1.485       .  S
C12         C644   1.466       .  S
O13          C26   1.264       .  A
O13         Co21   1.976   1_545  S
O14          C27   1.262       .  A
O14         Co22   2.001   1_545  S
O15          C28   1.294       .  A
O15         Co23   2.035   1_545  S
O16          C29   1.277       .  A
O16         Co24   1.984   1_545  S
O17          C29   1.293       .  A
O17         Co22   2.069   1_545  S
O18          C28   1.272       .  A
O18         Co21   1.902   1_545  S
O19          C26   1.277       .  A
O19         Co24   2.043   1_545  S
O20          C27   1.251       .  A
O20         Co23   1.969   1_545  S
Co21         O25   1.984       .  S
Co22         O25   1.947       .  S
Co23         O25   2.082       .  S
Co24         O25   2.020       .  S
C26         C639   1.486       .  S
C27         C624   1.473       .  S
C28         C647   1.460       .  S
C29         C632   1.495       .  S
O30          C38   1.254       .  A
O30         Co50   1.943   1_655  S
O31          C39   1.272       .  A
O31         Co51   1.984       .  S
O32          C40   1.265       .  A
O32         Co52   1.991   1_655  S
O33          C41   1.274       .  A
O33         Co53   2.009   1_655  S
O34          C40   1.273       .  A
O34         Co51   2.010       .  S
O35          C41   1.239       .  A
O35         Co50   1.922   1_655  S
O36          C39   1.248       .  A
O36         Co53   1.943   1_655  S
O37          C38   1.285       .  A
O37         Co52   2.074   1_655  S
C38         C615   1.487       .  S
C39         C612   1.467       .  S
C40         C595   1.489       .  S
C41         C603   1.456       .  S
O42          C55   1.272       .  A
O42         Co50   2.013       .  S
O43          C56   1.265       .  A
O43         Co51   1.989   1_455  S
O44          C57   1.272       .  A
O44         Co52   1.985       .  S
O45          C58   1.258       .  A
O45         Co53   1.939       .  S
O46          C58   1.284       .  A
O46         Co51   2.073   1_455  S
O47          C57   1.249       .  A
O47         Co50   1.945       .  S
O48          C55   1.239       .  A
O48         Co53   1.922       .  S
O49          C56   1.272       .  A
O49         Co52   2.009       .  S
Co50         O54   2.018       .  S
Co51         O54   2.086   1_655  S
Co52         O54   2.083       .  S
Co53         O54   2.021       .  S
C55         C599   1.456       .  S
C56         C591   1.484       .  S
C57         C619   1.464       .  S
C58         C607   1.496       .  S
O59          C67   1.267       .  A
O59         Co79   1.974   1_554  S
O60          C68   1.287       .  A
O60         Co80   2.070       .  S
O61          C69   1.259       .  A
O61         Co81   1.960       .  S
O62          C70   1.264       .  A
O62         Co82   1.961       .  S
O63          C69   1.261       .  A
O63         Co80   2.017       .  S
O64          C70   1.282       .  A
O64         Co79   2.041   1_554  S
O65          C68   1.271       .  A
O65         Co82   1.925       .  S
O66          C67   1.271       .  A
O66         Co81   1.998       .  S
C67         C583   1.471       .  S
C68         C567   1.475       .  S
C69         C559   1.484       .  S
C70         C575   1.479       .  S
O71          C84   1.261       .  A
O71         Co79   1.964       .  S
O72          C85   1.269       .  A
O72         Co80   1.956   1_556  S
O73          C86   1.268       .  A
O73         Co81   1.988   1_556  S
O74          C87   1.287       .  A
O74         Co82   2.075   1_556  S
O75          C87   1.268       .  A
O75         Co80   1.933   1_556  S
O76          C86   1.273       .  A
O76         Co79   1.998       .  S
O77          C84   1.268       .  A
O77         Co82   2.022   1_556  S
O78          C85   1.285       .  A
O78         Co81   2.041   1_556  S
Co79         O83   2.023   1_556  S
Co80         O83   2.023       .  S
Co81         O83   2.020       .  S
Co82         O83   2.028       .  S
C84         C580   1.481       .  S
C85         C563   1.467       .  S
C86         C587   1.482       .  S
C87         C571   1.488       .  S
C88         C551   1.488       .  S
C88          N89   1.365       .  A
C88          N93   1.367       .  A
N89          C90   1.358       .  A
C90         C627   1.478       .  S
C90          N91   1.358       .  A
N91          C92   1.356       .  A
C92         C555   1.486       .  S
C92          N93   1.365       .  A
C94         C556   1.487       .  S
C94          N95   1.365       .  A
C94          N99   1.358       .  A
N95          C96   1.365       .  A
C96         C547   1.493       .  S
C96          N97   1.365       .  A
N97          C98   1.363       .  A
C98         C543   1.489       .  S
C98          N99   1.360       .  A
C100        C540   1.494   1_655  S
C100        N101   1.366       .  A
C100        N105   1.360       .  A
N101        C102   1.371       .  A
C102        C548   1.492       .  S
C102        N103   1.367       .  A
N103        C104   1.362       .  A
C104        C616   1.494       .  S
C104        N105   1.357       .  A
C106        C536   1.486       .  S
C106        N107   1.367       .  A
C106        N111   1.363       .  A
N107        C108   1.365       .  A
C108        C572   1.483       .  S
C108        N109   1.359       .  A
N109        C110   1.358       .  A
C110        C544   1.485       .  S
C110        N111   1.360       .  A
C112        C527   1.477       .  S
C112        N113   1.353       .  A
C112        N117   1.358       .  A
N113        C114   1.356       .  A
C114        C531   1.490       .  S
C114        N115   1.369       .  A
N115        C116   1.375       .  A
C116        C523   1.493       .  S
C116        N117   1.364       .  A
C118        C588   1.474       .  S
C118        N119   1.356       .  A
C118        N123   1.356       .  A
N119        C120   1.363       .  A
C120        C532   1.503       .  S
C120        N121   1.370       .  A
N121        C122   1.372       .  A
C122        C520   1.490       .  S
C122        N123   1.359       .  A
C124        C515   1.484       .  S
C124        N125   1.365       .  A
C124        N129   1.355       .  A
N125        C126   1.369       .  A
C126        C623   1.483       .  S
C126        N127   1.364       .  A
N127        C128   1.356       .  A
C128        C528   1.483       .  S
C128        N129   1.356       .  A
C130        C512   1.503       .  S
C130        N131   1.371       .  A
C130        N135   1.373       .  A
N131        C132   1.370       .  A
C132        C524   1.491       .  S
C132        N133   1.356       .  A
N133        C134   1.355       .  A
C134        C608   1.493       .  S
C134        N135   1.364       .  A
O136        C144   1.265   1_545  A
O136       Co156   1.962       .  S
O137        C145   1.247       .  A
O137       Co157   1.987       .  S
O138        C146   1.290   1_556  A
O138       Co158   2.050       .  S
O139        C147   1.253       .  A
O139       Co159   1.953       .  S
O140        C146   1.272       .  A
O140       Co157   1.942       .  S
O141        C147   1.271   1_556  A
O141       Co156   2.033       .  S
O142        C145   1.260   1_545  A
O142       Co159   2.029       .  S
O143        C144   1.278       .  A
O143       Co158   2.050       .  S
C144        C516   1.493       .  S
C145        C499   1.484       .  S
C146        C491   1.480   1_554  S
C147        C503   1.473       .  S
O148        C161   1.255       .  A
O148       Co156   1.948       .  S
O149        C162   1.283   1_554  A
O149       Co157   2.045       .  S
O150        C163   1.254       .  A
O150       Co158   1.988       .  S
O151        C164   1.263   1_545  A
O151       Co159   1.958       .  S
O152        C164   1.281       .  A
O152       Co157   2.052       .  S
O153        C163   1.263   1_545  A
O153       Co156   2.027       .  S
O154        C161   1.267   1_554  A
O154       Co159   2.020       .  S
O155        C162   1.276       .  A
O155       Co158   1.947       .  S
Co156       O160   2.081       .  S
Co157       O160   2.042   1_564  S
Co158       O160   2.065   1_565  S
Co159       O160   2.095   1_554  S
C161        C507   1.479       .  S
C162        C487   1.477       .  S
C163        C552   1.491       .  S
C164        C495   1.485       .  S
C165        C483   1.475       .  S
C165        N166   1.359       .  A
C165        N170   1.357       .  A
N166        C167   1.355       .  A
C167        C479   1.480       .  S
C167        N168   1.361       .  A
N168        C169   1.362       .  A
C169        C475   1.475       .  S
C169        N170   1.360       .  A
C171        C492   1.472       .  S
C171        N172   1.353       .  A
C171        N176   1.365       .  A
N172        C173   1.351       .  A
C173        C484   1.470       .  S
C173        N174   1.356       .  A
N174        C175   1.361       .  A
C175        C579   1.478       .  S
C175        N176   1.366       .  A
C177        C471   1.476       .  S
C177        N178   1.362       .  A
C177        N182   1.356       .  A
N178        C179   1.368       .  A
C179        C636   1.480       .  S
C179        N180   1.363       .  A
N180        C181   1.360       .  A
C181        C480   1.480       .  S
C181        N182   1.353       .  A
C183        C600   1.453       .  S
C183        N184   1.359       .  A
C183        N188   1.346       .  A
N184        C185   1.360       .  A
C185        C467   1.483       .  S
C185        N186   1.367       .  A
N186        C187   1.363       .  A
C187        C476   1.475       .  S
C187        N188   1.350       .  A
C189        C459   1.478       .  S
C189        N190   1.359       .  A
C189        N194   1.357       .  A
N190        C191   1.362       .  A
C191        C456   1.483       .  S
C191        N192   1.365       .  A
N192        C193   1.363       .  A
C193        C463   1.481       .  S
C193        N194   1.358       .  A
C195        C452   1.489       .  S
C195        N196   1.365       .  A
C195        N200   1.364       .  A
N196        C197   1.366       .  A
C197        C611   1.474       .  S
C197        N198   1.351       .  A
N198        C199   1.355       .  A
C199        C464   1.485       .  S
C199        N200   1.364       .  A
C201        C447   1.483       .  S
C201        N202   1.358       .  A
C201        N206   1.365       .  A
N202        C203   1.359       .  A
C203        C568   1.475       .  S
C203        N204   1.358       .  A
N204        C205   1.360       .  A
C205        C460   1.483       .  S
C205        N206   1.362       .  A
C207        C640   1.492       .  S
C207        N208   1.364       .  A
C207        N212   1.364       .  A
N208        C209   1.363       .  A
C209        C455   1.488       .  S
C209        N210   1.360       .  A
N210        C211   1.359       .  A
C211        C496   1.483       .  S
C211        N212   1.363       .  A
O213        C221   1.266   1_556  A
O213       Co233   1.956       .  S
O214        C222   1.251   1_554  A
O214       Co234   1.953       .  S
O215        C223   1.271       .  A
O215       Co235   1.997       .  S
O216        C224   1.281   1_455  A
O216       Co236   2.054       .  S
O217        C223   1.271   1_455  A
O217       Co234   1.991       .  S
O218        C224   1.275       .  A
O218       Co233   1.939       .  S
O219        C222   1.262       .  A
O219       Co236   2.025       .  S
O220        C221   1.282       .  A
O220       Co235   2.055       .  S
C221        C535   1.488   1_554  S
C222        C443   1.478   1_556  S
C223        C436   1.478       .  S
C224        C468   1.470       .  S
O225        C238   1.281   1_655  A
O225       Co233   2.051       .  S
O226        C239   1.265       .  A
O226       Co234   1.984       .  S
O227        C240   1.252   1_554  A
O227       Co235   1.963       .  S
O228        C241   1.260   1_556  A
O228       Co236   1.952       .  S
O229        C241   1.291       .  A
O229       Co234   2.081       .  S
O230        C240   1.270       .  A
O230       Co233   2.038       .  S
O231        C238   1.268       .  A
O231       Co236   1.943       .  S
O232        C239   1.266   1_655  A
O232       Co235   1.988       .  S
Co233       O237   2.038   1_556  S
Co234       O237   2.023   1_455  S
Co235       O237   2.018       .  S
Co236       O237   2.031   1_456  S
C238        C431   1.479   1_455  S
C239        C440   1.472       .  S
C240        C448   1.473       .  S
C241        C519   1.483   1_554  S
C242        C423   1.485       .  S
C242        N243   1.370       .  A
C242        N247   1.354       .  A
N243        C244   1.373       .  A
C244        C631   1.505       .  S
C244        N245   1.365       .  A
N245        C246   1.362       .  A
C246        C427   1.476       .  S
C246        N247   1.354       .  A
C248        C428   1.483       .  S
C248        N249   1.362       .  A
C248        N253   1.365       .  A
N249        C250   1.359       .  A
C250        C416   1.479       .  S
C250        N251   1.355       .  A
N251        C252   1.352       .  A
C252        C420   1.474       .  S
C252        N253   1.362       .  A
C254        C439   1.474       .  S
C254        N255   1.358       .  A
C254        N259   1.357       .  A
N255        C256   1.364       .  A
C256        C419   1.479       .  S
C256        N257   1.360       .  A
N257        C258   1.358       .  A
C258        C592   1.473       .  S
C258        N259   1.357       .  A
C260        C560   1.479       .  S
C260        N261   1.365       .  A
C260        N265   1.353       .  A
N261        C262   1.368       .  A
C262        C504   1.485       .  S
C262        N263   1.363       .  A
N263        C264   1.357       .  A
C264        C415   1.464       .  S
C264        N265   1.351       .  A
C266        C411   1.464       .  S
C266        N267   1.362       .  A
C266        N271   1.356       .  A
N267        C268   1.360       .  A
C268        C407   1.463       .  S
C268        N269   1.352       .  A
N269        C270   1.350       .  A
C270        C403   1.460       .  S
C270        N271   1.354       .  A
C272        C604   1.441       .  S
C272        N273   1.362       .  A
C272        N277   1.345       .  A
N273        C274   1.363       .  A
C274        C432   1.469       .  S
C274        N275   1.361       .  A
N275        C276   1.353       .  A
C276        C412   1.469       .  S
C276        N277   1.346       .  A
C278        C564   1.474       .  S
C278        N279   1.363       .  A
C278        N283   1.362       .  A
N279        C280   1.361       .  A
C280        C508   1.470       .  S
C280        N281   1.350       .  A
N281        C282   1.355       .  A
C282        C408   1.471       .  S
C282        N283   1.354       .  A
C284        C648   1.451       .  S
C284        N285   1.350       .  A
C284        N289   1.357       .  A
N285        C286   1.351       .  A
C286        C404   1.466       .  S
C286        N287   1.354       .  A
N287        C288   1.358       .  A
C288        C399   1.464       .  S
C288        N289   1.359       .  A
C290        C395   1.486       .  S
C290        N291   1.362       .  A
C290        N295   1.365       .  A
N291        C292   1.360       .  A
C292        C387   1.480       .  S
C292        N293   1.356       .  A
N293        C294   1.356       .  A
C294        C391   1.480       .  S
C294        N295   1.364       .  A
C296        C652   1.484       .  S
C296        N297   1.367       .  A
C296        N301   1.361       .  A
N297        C298   1.368       .  A
C298        C384   1.501       .  S
C298        N299   1.362       .  A
N299        C300   1.362       .  A
C300        C396   1.487       .  S
C300        N301   1.361       .  A
C302        C435   1.477       .  S
C302        N303   1.356       .  A
C302        N307   1.360       .  A
N303        C304   1.357       .  A
C304        C596   1.474       .  S
C304        N305   1.360       .  A
N305        C306   1.363       .  A
C306        C392   1.486       .  S
C306        N307   1.365       .  A
C308        C488   1.485   1_554  S
C308        N309   1.356       .  A
C308        N313   1.362       .  A
N309        C310   1.357       .  A
C310        C576   1.479       .  S
C310        N311   1.361       .  A
N311        C312   1.362       .  A
C312        C388   1.476       .  S
C312        N313   1.363       .  A
C314        C375   1.477       .  S
C314        N315   1.362       .  A
C314        N319   1.354       .  A
N315        C316   1.363       .  A
C316        C379   1.477       .  S
C316        N317   1.359       .  A
N317        C318   1.357       .  A
C318        C371   1.470       .  S
C318        N319   1.357       .  A
C320        C643   1.464       .  S
C320        N321   1.357       .  A
C320        N325   1.349       .  A
N321        C322   1.361       .  A
C322        C500   1.484       .  S
C322        N323   1.368       .  A
N323        C324   1.365       .  A
C324        C380   1.480       .  S
C324        N325   1.353       .  A
C326        C620   1.467       .  S
C326        N327   1.354       .  A
C326        N331   1.375       .  A
N327        C328   1.351       .  A
C328        C376   1.476       .  S
C328        N329   1.351       .  A
N329        C330   1.358       .  A
C330        C367   1.487       .  S
C330        N331   1.368       .  A
C332        C584   1.466       .  S
C332        N333   1.358       .  A
C332        N337   1.359       .  A
N333        C334   1.359       .  A
C334        C372   1.466       .  S
C334        N335   1.357       .  A
N335        C336   1.356       .  A
C336        C444   1.475       .  S
C336        N337   1.356       .  A
O338        C346   1.254   1_655  A
O338       Co358   1.968       .  S
O339        C347   1.257       .  A
O339       Co359   1.977       .  S
O340        C348   1.289   1_565  A
O340       Co360   2.041       .  S
O341        C349   1.280   1_545  A
O341       Co361   2.015       .  S
O342        C348   1.281       .  A
O342       Co359   1.933       .  S
O343        C349   1.272       .  A
O343       Co358   1.949       .  S
O344        C347   1.265   1_655  A
O344       Co361   2.039       .  S
O345        C346   1.274       .  A
O345       Co360   2.045       .  S
C346        C539   1.498       .  S
C347        C511   1.508       .  S
C348        C472   1.486   1_545  S
C349        C400   1.472   1_565  S
O350        C363   1.249       .  A
O350       Co358   1.964       .  S
O351        C364   1.255   1_545  A
O351       Co359   2.003       .  S
O352        C365   1.253   1_455  A
O352       Co360   1.958       .  S
O353        C366   1.264   1_655  A
O353       Co361   1.957       .  S
O354        C366   1.291       .  A
O354       Co359   2.077       .  S
O355        C365   1.264       .  A
O355       Co358   2.053       .  S
O356        C363   1.266   1_545  A
O356       Co361   2.041       .  S
O357        C364   1.253       .  A
O357       Co360   1.959       .  S
Co358       O362   2.034   1_655  S
Co359       O362   2.029   1_545  S
Co360       O362   2.114       .  S
Co361       O362   2.153   1_645  S
C363        C383   1.492       .  S
C364        C424   1.471       .  S
C365        C368   1.499   1_655  S
C366        C451   1.486   1_455  S
C367        C368   1.354       .  D
C367        H369   1.089       .  S
C368        H370   1.086   1_455  S
C371        C372   1.341       .  D
C371        H373   1.087       .  S
C372        H374   1.087       .  S
C375        C376   1.343       .  D
C375        H377   1.085       .  S
C376        H378   1.084       .  S
C379        C380   1.351       .  D
C379        H381   1.089       .  S
C380        H382   1.088       .  S
C383        C384   1.358       .  D
C383        H385   1.087       .  S
C384        H386   1.087       .  S
C387        C388   1.346       .  D
C387        H389   1.085       .  S
C388        H390   1.085       .  S
C391        C392   1.345       .  D
C391        H393   1.087       .  S
C392        H394   1.087       .  S
C395        C396   1.348       .  D
C395        H397   1.086       .  S
C396        H398   1.086       .  S
C399        C400   1.345       .  D
C399        H401   1.090       .  S
C400        H402   1.089   1_545  S
C403        C404   1.340       .  D
C403        H405   1.089       .  S
C404        H406   1.089       .  S
C407        C408   1.339       .  D
C407        H409   1.086       .  S
C408        H410   1.085       .  S
C411        C412   1.342       .  D
C411        H413   1.089       .  S
C412        H414   1.088       .  S
C415        C416   1.344       .  D
C415        H417   1.085       .  S
C416        H418   1.085       .  S
C419        C420   1.341       .  D
C419        H421   1.086       .  S
C420        H422   1.086       .  S
C423        C424   1.351   1_545  D
C423        H425   1.087       .  S
C424        H426   1.087       .  S
C427        C428   1.345       .  D
C427        H429   1.088       .  S
C428        H430   1.089       .  S
C431        C432   1.348       .  D
C431        H433   1.084   1_655  S
C432        H434   1.085       .  S
C435        C436   1.347       .  D
C435        H437   1.086       .  S
C436        H438   1.085       .  S
C439        C440   1.344       .  D
C439        H441   1.088       .  S
C440        H442   1.087   1_455  S
C443        C444   1.350       .  D
C443        H445   1.082   1_554  S
C444        H446   1.083       .  S
C447        C448   1.344   1_554  D
C447        H449   1.084       .  S
C448        H450   1.085   1_556  S
C451        C452   1.354       .  D
C451        H453   1.086   1_655  S
C452        H454   1.084       .  S
C455        C456   1.349       .  D
C455        H457   1.086       .  S
C456        H458   1.086       .  S
C459        C460   1.346       .  D
C459        H461   1.086       .  S
C460        H462   1.085       .  S
C463        C464   1.349       .  D
C463        H465   1.084       .  S
C464        H466   1.083       .  S
C467        C468   1.343   1_455  D
C467        H469   1.086   1_455  S
C468        H470   1.086   1_655  S
C471        C472   1.353       .  D
C471        H473   1.088       .  S
C472        H474   1.084   1_565  S
C475        C476   1.348       .  D
C475        H477   1.088       .  S
C476        H478   1.086       .  S
C479        C480   1.341       .  D
C479        H481   1.084       .  S
C480        H482   1.085       .  S
C483        C484   1.341       .  D
C483        H485   1.086       .  S
C484        H486   1.087       .  S
C487        C488   1.344       .  D
C487        H489   1.089   1_556  S
C488        H490   1.089       .  S
C491        C492   1.343       .  D
C491        H493   1.088   1_556  S
C492        H494   1.090       .  S
C495        C496   1.350   1_565  D
C495        H497   1.088       .  S
C496        H498   1.088       .  S
C499        C500   1.347       .  D
C499        H501   1.087       .  S
C500        H502   1.088       .  S
C503        C504   1.350       .  D
C503        H505   1.088       .  S
C504        H506   1.089       .  S
C507        C508   1.344       .  D
C507        H509   1.087       .  S
C508        H510   1.087       .  S
C511        C512   1.362       .  D
C511        H513   1.083       .  S
C512        H514   1.076       .  S
C515        C516   1.349   1_545  D
C515        H517   1.087       .  S
C516        H518   1.086       .  S
C519        C520   1.344       .  D
C519        H521   1.090       .  S
C520        H522   1.090       .  S
C523        C524   1.343       .  D
C523        H525   1.086       .  S
C524        H526   1.086       .  S
C527        C528   1.346       .  D
C527        H529   1.090       .  S
C528        H530   1.089       .  S
C531        C532   1.353       .  D
C531        H533   1.086       .  S
C532        H534   1.085       .  S
C535        C536   1.352       .  D
C535        H537   1.086   1_556  S
C536        H538   1.086       .  S
C539        C540   1.353       .  D
C539        H541   1.086   1_455  S
C540        H542   1.086       .  S
C543        C544   1.350       .  D
C543        H545   1.086       .  S
C544        H546   1.086       .  S
C547        C548   1.349       .  D
C547        H549   1.088       .  S
C548        H550   1.088       .  S
C551        C552   1.353       .  D
C551        H553   1.085       .  S
C552        H554   1.085       .  S
C555        C556   1.344       .  D
C555        H557   1.085       .  S
C556        H558   1.085       .  S
C559        C560   1.344       .  D
C559        H561   1.087       .  S
C560        H562   1.088       .  S
C563        C564   1.346       .  D
C563        H565   1.085       .  S
C564        H566   1.086       .  S
C567        C568   1.347       .  D
C567        H569   1.086       .  S
C568        H570   1.087       .  S
C571        C572   1.350       .  D
C571        H573   1.087       .  S
C572        H574   1.088       .  S
C575        C576   1.346       .  D
C575        H577   1.087       .  S
C576        H578   1.088       .  S
C579        C580   1.347       .  D
C579        H581   1.083       .  S
C580        H582   1.081       .  S
C583        C584   1.348       .  D
C583        H585   1.085       .  S
C584        H586   1.088       .  S
C587        C588   1.349       .  D
C587        H589   1.084       .  S
C588        H590   1.085       .  S
C591        C592   1.352       .  D
C591        H593   1.083       .  S
C592        H594   1.085       .  S
C595        C596   1.353       .  D
C595        H597   1.084       .  S
C596        H598   1.085       .  S
C599        C600   1.329       .  D
C599        H601   1.083       .  S
C600        H602   1.082       .  S
C603        C604   1.326       .  D
C603        H605   1.089       .  S
C604        H606   1.087       .  S
C607        C608   1.356       .  D
C607        H609   1.084       .  S
C608        H610   1.086       .  S
C611        C612   1.334       .  D
C611        H613   1.084       .  S
C612        H614   1.085       .  S
C615        C616   1.350       .  D
C615        H617   1.084       .  S
C616        H618   1.082       .  S
C619        C620   1.331       .  D
C619        H621   1.088       .  S
C620        H622   1.087       .  S
C623        C624   1.352       .  D
C623        H625   1.090       .  S
C624        H626   1.089       .  S
C627        C628   1.357       .  D
C627        H629   1.083       .  S
C628        H630   1.081       .  S
C631        C632   1.359       .  D
C631        H633   1.087       .  S
C632        H634   1.086       .  S
C635        C636   1.347       .  D
C635        H637   1.084       .  S
C636        H638   1.083       .  S
C639        C640   1.353       .  D
C639        H641   1.083       .  S
C640        H642   1.083       .  S
C643        C644   1.341       .  D
C643        H645   1.087       .  S
C644        H646   1.085       .  S
C647        C648   1.339       .  D
C647        H649   1.084       .  S
C648        H650   1.086       .  S
C651        C652   1.350       .  D
C651        H653   1.087       .  S
C652        H654   1.087       .  S
