geometry optimzed in LAMMPS
_audit_creation_date              2020-11-30 
_audit_creation_method            'lammps2cif' 
_symmetry_space_group_name_H-M    'P1' 
_symmetry_Int_Tables_number       1 
_symmetry_cell_setting            triclinic 
loop_ 
_symmetry_equiv_pos_as_xyz 
  x,y,z 
_cell_length_a                    36.74500603 
_cell_length_b                    37.40405448677351 
_cell_length_c                    37.093731188798515 
_cell_angle_alpha                 89.85936143867576 
_cell_angle_beta                  90.42731646085649 
_cell_angle_gamma                 90.0665572284959 
loop_ 
_atom_site_label 
_atom_site_type_symbol 
_atom_site_fract_x 
_atom_site_fract_y 
_atom_site_fract_z 
_atom_site_charge 
O1          O  0.30803498  0.69115694  0.76815681    -0.81800
O2          O  0.27221679  0.83613385  0.72580361    -0.81800
O3          O  0.28339311  0.72132692  0.68678537    -0.81800
O4          O  0.31821985  0.76210124  0.81321319    -0.81800
O5          O  0.27099536  0.77833197  0.67536458    -0.81900
O6          O  0.28425944  0.72003120  0.83307730    -0.81800
O7          O  0.31283848  0.81775963  0.76541875    -0.81800
O8          O  0.28163486  0.67479383  0.71897119    -0.81900
C9          C  0.30750963  0.67132382  0.74032958     1.07900
C10         C  0.30032603  0.84222199  0.74524295     1.07800
C11         C  0.28675235  0.74882089  0.66726925     1.07900
C12         C  0.31017953  0.74129499  0.83855055     1.07800
O13         O  0.21425245  0.73235242  0.80500310    -0.81800
O14         O  0.20005903  0.75891672  0.70779146    -0.81900
O15         O  0.22144257  0.67030168  0.74969255    -0.81800
O16         O  0.24250038  0.83493334  0.79057076    -0.81800
O17         O  0.20500829  0.80728912  0.75576439    -0.81900
O18         O  0.24860470  0.66769301  0.80286772    -0.81800
O19         O  0.24271681  0.77455380  0.83541341    -0.81800
O20         O  0.21499121  0.71151205  0.68262929    -0.81900
Co21       Co  0.26000453  0.71347749  0.78475706     1.51500
Co22       Co  0.23894278  0.79293304  0.71822095     1.51700
Co23       Co  0.24816565  0.71288950  0.72503914     1.51600
Co24       Co  0.27811168  0.79420051  0.79810808     1.51500
O25         O  0.26398405  0.75884978  0.75573648    -1.43800
C26         C  0.21763596  0.75092547  0.83342195     1.07800
C27         C  0.19963985  0.74075087  0.67959838     1.07900
C28         C  0.22915627  0.65314192  0.77903950     1.07800
C29         C  0.21292933  0.83469177  0.77314223     1.07800
O30         O  0.72913072  0.19375019  0.67436988    -0.81800
O31         O  0.74763367  0.18949869  0.79671554    -0.81800
O32         O  0.81946404  0.24104995  0.70200863    -0.81800
O33         O  0.66744058  0.22561546  0.76689124    -0.81800
O34         O  0.80679794  0.19394141  0.73761346    -0.81900
O35         O  0.68041587  0.19150846  0.72291239    -0.81800
O36         O  0.70890455  0.23309140  0.81328843    -0.81800
O37         O  0.77232966  0.23034259  0.66307409    -0.81900
C38         C  0.75574926  0.20219560  0.65587696     1.07900
C39         C  0.72339833  0.20224331  0.81832825     1.07800
C40         C  0.82739556  0.20998855  0.71447444     1.07900
C41         C  0.66072128  0.19828013  0.74894199     1.07800
O42         O  0.66752765  0.27157399  0.71918221    -0.81800
O43         O  0.82125755  0.26111986  0.76525642    -0.81900
O44         O  0.77736872  0.29771568  0.66185607    -0.81800
O45         O  0.74065478  0.29972646  0.78885178    -0.81800
O46         O  0.77121482  0.25687680  0.81624009    -0.81900
O47         O  0.72126436  0.27311402  0.66382937    -0.81800
O48         O  0.66519876  0.29191225  0.77654996    -0.83600
O49         O  0.79044224  0.30346250  0.73702501    -0.81900
Co50       Co  0.70362486  0.23276116  0.69913084     1.51500
Co51       Co  0.78377223  0.22438076  0.77602026     1.51700
Co52       Co  0.77171348  0.26685796  0.70252893     1.51600
Co53       Co  0.70694517  0.26299879  0.76839898     1.51500
O54         O  0.74466929  0.23908202  0.73919107    -1.43800
C55         C  0.65266239  0.29132034  0.74405330     1.07800
C56         C  0.81887076  0.29301483  0.75385439     1.07900
C57         C  0.74480513  0.29474079  0.64920985     1.07800
C58         C  0.75840491  0.28828304  0.81610832     1.07800
O59         O  0.68473943  0.74726902  0.20361606    -0.81800
O60         O  0.80871453  0.73495625  0.20899741    -0.81800
O61         O  0.72452282  0.82679514  0.22621044    -0.81800
O62         O  0.77110135  0.67759343  0.24580722    -0.81800
O63         O  0.75891937  0.79456122  0.18867266    -0.81900
O64         O  0.73541993  0.69272047  0.20242237    -0.81800
O65         O  0.82031351  0.71066217  0.26226956    -0.81800
O66         O  0.66899308  0.78665808  0.24432198    -0.81900
C67         C  0.66352845  0.77155898  0.21434809     1.07900
C68         C  0.82925421  0.71596531  0.22949472     1.07800
C69         C  0.73769329  0.82101657  0.19489104     1.07900
C70         C  0.75828178  0.67129705  0.21519236     1.07800
O71         O  0.71936457  0.67790054  0.28186493    -0.81800
O72         O  0.78598342  0.83053897  0.24935734    -0.81900
O73         O  0.69794491  0.76976838  0.31363196    -0.81800
O74         O  0.79027036  0.75322005  0.31752978    -0.81800
O75         O  0.82403691  0.77494769  0.27268393    -0.81900
O76         O  0.67048140  0.73064605  0.27802734    -0.81800
O77         O  0.77117850  0.67770530  0.31499954    -0.81800
O78         O  0.75615599  0.81945789  0.29864238    -0.81900
Co79       Co  0.70655443  0.71588811  0.24116664     1.51500
Co80       Co  0.79080477  0.78078429  0.23006161     1.51700
Co81       Co  0.71510713  0.79717555  0.27064418     1.51600
Co82       Co  0.77051410  0.71769847  0.28270527     1.51500
O83         O  0.74670081  0.75494195  0.25281313    -1.43800
C84         C  0.74024523  0.66366561  0.30672565     1.07800
C85         C  0.77662466  0.84007014  0.28058077     1.07900
C86         C  0.67225108  0.74763622  0.30747364     1.07800
C87         C  0.81917511  0.76861292  0.30612937     1.07800
C88         C  0.51840670  0.00023148  0.02600344     0.00600
C89         C  0.49107396  0.97380268  0.02618947     0.00600
C90         C  0.46348704  0.97363398  0.99963319     0.00600
C91         C  0.46312239  0.00013236  0.97274153     0.00600
C92         C  0.49076575  0.02632190  0.97212737     0.00600
C93         C  0.51799546  0.02674854  0.99908501     0.00600
C94         C  0.68843625  0.95554355  0.14828808     0.78500
N95         N  0.65912070  0.95906363  0.12618519    -0.79800
C96         C  0.64096180  0.99042437  0.12342123     0.81000
N97         N  0.65209254  0.01869083  0.14336399    -0.79700
C98         C  0.68150652  0.01613837  0.16559673     0.81100
N99         N  0.69998035  0.98442491  0.16787336    -0.81400
C100        C  0.66093760  0.18296781  0.02177932     0.78500
N101        N  0.67876341  0.18905896  0.98983813    -0.79800
C102        C  0.67044291  0.16869667  0.96005431     0.81000
N103        N  0.64503470  0.14252500  0.96279745    -0.79700
C104        C  0.62743850  0.13649885  0.99404661     0.81100
N105        N  0.63525163  0.15684893  0.02313543    -0.81400
C106        C  0.31013026  0.03871307  0.82809447     0.78500
N107        N  0.33419226  0.03559185  0.85592136    -0.79800
C108        C  0.35452537  0.00576911  0.86029677     0.81000
N109        N  0.35086556  0.97864983  0.83656063    -0.79700
C110        C  0.32677159  0.98029726  0.80869070     0.81100
N111        N  0.30604115  0.01064495  0.80442705    -0.81400
C112        C  0.46184779  0.16177026  0.81330875     0.78500
N113        N  0.46325908  0.14027702  0.84258584    -0.79800
C114        C  0.49424306  0.12280440  0.85152859     0.81000
N115        N  0.52444318  0.12740389  0.83116166    -0.79700
C116        C  0.52380725  0.14942602  0.80193532     0.81100
N117        N  0.49214050  0.16649332  0.79288712    -0.81400
C118        C  0.46228234  0.82425673  0.17182132     0.78500
N119        N  0.46128701  0.85117746  0.14740363    -0.79800
C120        C  0.49151805  0.85993542  0.12886084     0.81000
N121        N  0.52308720  0.84254676  0.13550833    -0.79700
C122        C  0.52458705  0.81582275  0.16012723     0.81100
N123        N  0.49397276  0.80629457  0.17816933    -0.81400
C124        C  0.32764876  0.81488216  0.03780540     0.78500
N125        N  0.35058273  0.84331839  0.03602634    -0.79800
C126        C  0.37011488  0.85000165  0.00591023     0.81000
N127        N  0.36686790  0.82774334  0.97733594    -0.79700
C128        C  0.34405170  0.79916784  0.97811283     0.81100
N129        N  0.32406484  0.79292359  0.00848591    -0.81400
C130        C  0.01477506  0.53354482  0.98805406     0.00600
C131        C  0.01465997  0.50717388  0.96101997     0.00600
C132        C  0.98704844  0.48100942  0.95974662     0.00600
C133        C  0.95976524  0.48050308  0.98617987     0.00600
C134        C  0.96012557  0.50637678  0.01369291     0.00600
C135        C  0.98790055  0.53248323  0.01488677     0.00600
C136        C  0.16951143  0.68111343  0.96439902     0.78500
N137        N  0.14129015  0.65741795  0.96285922    -0.79800
C138        C  0.13359472  0.63581760  0.99125430     0.81000
N139        N  0.15440393  0.63803265  0.02137258    -0.79700
C140        C  0.18257027  0.66134997  0.02417305     0.81100
N141        N  0.19016416  0.68319384  0.99540444    -0.81400
C142        C  0.18659125  0.51889876  0.83718059     0.78500
N143        N  0.15462536  0.52070111  0.85506298    -0.79800
C144        C  0.14493055  0.49457666  0.87834994     0.81000
N145        N  0.16713855  0.46614132  0.88342084    -0.79700
C146        C  0.19905337  0.46346270  0.86556494     0.81100
N147        N  0.20894916  0.49021259  0.84253103    -0.81400
C148        C  0.96582860  0.65480009  0.18450814     0.78500
N149        N  0.96542099  0.63622478  0.15320552    -0.79800
C150        C  0.99506832  0.61762826  0.14282490     0.81000
N151        N  0.02559802  0.61826808  0.16340291    -0.79700
C152        C  0.02701041  0.63736255  0.19441311     0.81100
N153        N  0.99671452  0.65540039  0.20524976    -0.81400
C154        C  0.82014254  0.53654347  0.17135674     0.78500
N155        N  0.81828235  0.50659231  0.19286167    -0.79800
C156        C  0.83857515  0.47701131  0.18475298     0.81000
N157        N  0.86013382  0.47792133  0.15535473    -0.79700
C158        C  0.86203818  0.50698593  0.13385898     0.81100
N159        N  0.84199007  0.53620341  0.14193145    -0.81400
C160        C  0.01452650  0.32068312  0.82415717     0.78500
N161        N  0.98460727  0.31679857  0.80241373    -0.79800
C162        C  0.95565550  0.33957966  0.80555413     0.81000
N163        N  0.95715143  0.36620719  0.83028851    -0.79700
C164        C  0.98662419  0.37031491  0.85199056     0.81100
N165        N  0.01499044  0.34744101  0.84889804    -0.81400
C166        C  0.83495829  0.30911053  0.00837145     0.78500
N167        N  0.85808154  0.33751181  0.01006174    -0.79800
C168        C  0.85854554  0.36253602  0.98346043     0.81000
N169        N  0.83596359  0.35889451  0.95464576    -0.79700
C170        C  0.81291791  0.33064302  0.95205525     0.81100
N171        N  0.81237271  0.30584360  0.97917225    -0.81400
C172        C  0.49051105  0.46256442  0.51377896     0.00600
C173        C  0.51626287  0.46234742  0.48582596     0.00600
C174        C  0.51921032  0.49221274  0.46274852     0.00600
C175        C  0.49581409  0.52184148  0.46718560     0.00600
C176        C  0.46955649  0.52172048  0.49476984     0.00600
C177        C  0.46739322  0.49226587  0.51843423     0.00600
C178        C  0.51818335  0.32848086  0.67525677     0.78500
N179        N  0.48719146  0.30935538  0.68165827    -0.79800
C180        C  0.45742069  0.31301381  0.65950183     0.81000
N181        N  0.45907742  0.33590568  0.63107593    -0.79700
C182        C  0.48963910  0.35513491  0.62470605     0.81100
N183        N  0.51883694  0.35134995  0.64685584    -0.81400
C184        C  0.33760695  0.68705365  0.53538360     0.78500
N185        N  0.36140756  0.65892327  0.53728440    -0.79800
C186        C  0.36693248  0.63770135  0.50795192     0.81000
N187        N  0.34897845  0.64478808  0.47681331    -0.79700
C188        C  0.32583509  0.67266796  0.47423715     0.81100
N189        N  0.32024798  0.69398860  0.50340895    -0.81400
C190        C  0.68830674  0.52160644  0.33902061     0.78500
N191        N  0.66037245  0.51963924  0.36251329    -0.79800
C192        C  0.64253782  0.48861768  0.36838394     0.81000
N193        N  0.65282808  0.45873851  0.35055149    -0.79700
C194        C  0.68097282  0.45991420  0.32692656     0.81100
N195        N  0.69868931  0.49159012  0.32088450    -0.81400
C196        C  0.53507949  0.69598223  0.35251178     0.78500
N197        N  0.50458775  0.70521438  0.33306812    -0.79800
C198        C  0.47386454  0.68455011  0.33516109     0.81000
N199        N  0.47385701  0.65535914  0.35670217    -0.79700
C200        C  0.50345671  0.64633578  0.37641046     0.81100
N201        N  0.53394116  0.66661733  0.37419024    -0.81400
C202        C  0.35092551  0.53672562  0.68959365     0.78500
N203        N  0.37281751  0.53301094  0.66060990    -0.79800
C204        C  0.37454902  0.50171812  0.64251521     0.81000
N205        N  0.35367307  0.47385753  0.65328411    -0.79700
C206        C  0.33153222  0.47686439  0.68230520     0.81100
N207        N  0.33023460  0.50852175  0.70058642    -0.81400
C208        C  0.67777221  0.32730406  0.51269661     0.78500
N209        N  0.64910535  0.34998054  0.51173436    -0.79800
C210        C  0.62841494  0.35416663  0.48165937     0.81000
N211        N  0.63630486  0.33481851  0.45170209    -0.79700
C212        C  0.66521100  0.31199188  0.45178610     0.81100
N213        N  0.68621330  0.30865641  0.48230306    -0.81400
C214        C  0.03036049  0.96554317  0.51033635     0.00600
C215        C  0.03065536  0.99207060  0.53717273     0.00600
C216        C  0.00750153  0.02197620  0.53421292     0.00600
C217        C  0.98260758  0.02437157  0.50518904     0.00600
C218        C  0.98152720  0.99730909  0.47883934     0.00600
C219        C  0.00563440  0.96817349  0.48133883     0.00600
C220        C  0.97371630  0.18086938  0.66668117     0.78500
N221        N  0.97668337  0.15193265  0.64512040    -0.79800
C222        C  0.00890010  0.14244067  0.63068210     0.81000
N223        N  0.03883413  0.16266344  0.63754336    -0.79700
C224        C  0.03697971  0.19203402  0.65913862     0.81100
N225        N  0.00405667  0.20109905  0.67398983    -0.81400
C226        C  0.17351819  0.02059487  0.68645276     0.78500
N227        N  0.17921457  0.99351090  0.71046331    -0.79800
C228        C  0.16117328  0.96176742  0.70612695     0.81000
N229        N  0.13755932  0.95775976  0.67784855    -0.79700
C230        C  0.13266217  0.98465408  0.65380368     0.81100
N231        N  0.15061911  0.01563894  0.65837254    -0.81400
C232        C  0.17237873  0.80973423  0.54215700     0.78500
N233        N  0.14638853  0.83544874  0.54142010    -0.79800
C234        C  0.14074143  0.85580159  0.51178635     0.81000
N235        N  0.16157888  0.85047166  0.48232947    -0.79700
C236        C  0.18757606  0.82471870  0.48187856     0.81100
N237        N  0.19282701  0.80390514  0.51198507    -0.81400
C238        C  0.81994590  0.15818355  0.52438035     0.78500
N239        N  0.81287196  0.17658179  0.49348333    -0.79800
C240        C  0.83460913  0.17282004  0.46422789     0.81000
N241        N  0.86360095  0.15023085  0.46582476    -0.79700
C242        C  0.87029334  0.13113804  0.49643592     0.81100
N243        N  0.84846113  0.13533683  0.52540666    -0.81400
C244        C  0.84559117  0.03997934  0.31927604     0.78500
N245        N  0.86892733  0.03772946  0.34763786    -0.79800
C246        C  0.87418305  0.00639979  0.36523375     0.81000
N247        N  0.85519130  0.97703700  0.35486168    -0.79700
C248        C  0.83179903  0.97846733  0.32640247     0.81100
N249        N  0.82729895  0.01005668  0.30812103    -0.81400
C250        C  0.02026888  0.82554253  0.32581502     0.78500
N251        N  0.02441846  0.85096055  0.35159579    -0.79800
C252        C  0.99700449  0.85856253  0.37445443     0.81000
N253        N  0.96487237  0.84134865  0.37116683    -0.79700
C254        C  0.95964642  0.81629066  0.34545765     0.81100
N255        N  0.98765686  0.80789797  0.32285040    -0.81400
O256        O  0.24743785  0.18177386  0.70279523    -0.81800
O257        O  0.23479772  0.33265600  0.72401913    -0.81800
O258        O  0.19937338  0.24080595  0.70723555    -0.81800
O259        O  0.32001004  0.28059029  0.74037372    -0.81800
O260        O  0.17080609  0.28851966  0.72329793    -0.81900
O261        O  0.29395183  0.24401596  0.70057066    -0.81800
O262        O  0.28200778  0.33836732  0.76133876    -0.81800
O263        O  0.19766267  0.17620168  0.73638095    -0.81900
C264        C  0.21919899  0.16357143  0.71244350     1.07900
C265        C  0.26333750  0.34900259  0.73437924     1.07800
C266        C  0.17185962  0.26056601  0.70454662     1.07900
C267        C  0.31996969  0.26441842  0.71048137     1.07800
O268        O  0.30133962  0.21071543  0.75756932    -0.81800
O269        O  0.17466692  0.28670722  0.79885819    -0.81900
O270        O  0.22563126  0.19768675  0.80206445    -0.81800
O271        O  0.26646539  0.30475645  0.82901125    -0.81800
O272        O  0.22612762  0.33790815  0.79985091    -0.81900
O273        O  0.26871955  0.18566700  0.76514404    -0.81800
O274        O  0.30701179  0.24547304  0.80578588    -0.81800
O275        O  0.16310283  0.23376685  0.77509389    -0.81900
Co276      Co  0.25307543  0.22637300  0.73183971     1.51500
Co277      Co  0.20473833  0.30822222  0.76092173     1.51700
Co278      Co  0.21354508  0.22230856  0.75582098     1.51600
Co279      Co  0.29027249  0.29003733  0.78354989     1.51500
O280        O  0.24218035  0.26781498  0.76602198    -1.43800
C281        C  0.31995484  0.22164043  0.78539912     1.07800
C282        C  0.15342294  0.26055537  0.79400399     1.07900
C283        C  0.25141164  0.17722144  0.79352410     1.07800
C284        C  0.24580981  0.33179097  0.82729510     1.07800
O285        O  0.77383291  0.17947256  0.27449370    -0.81800
O286        O  0.80183003  0.32115338  0.20284592    -0.81800
O287        O  0.80462863  0.21919074  0.16202187    -0.81800
O288        O  0.80798699  0.26789006  0.31727008    -0.81800
O289        O  0.78381804  0.27385946  0.14979822    -0.81900
O290        O  0.77228066  0.21962875  0.30961817    -0.81800
O291        O  0.80675106  0.31903369  0.26233125    -0.81800
O292        O  0.81357453  0.19490192  0.23428431    -0.81900
C293        C  0.80481104  0.17525209  0.26086327     1.07900
C294        C  0.81143164  0.33506490  0.23250325     1.07800
C295        C  0.80226857  0.24649237  0.14156696     1.07900
C296        C  0.79540639  0.23815550  0.32874626     1.07800
O297        O  0.70297455  0.23657244  0.29323018    -0.81800
O298        O  0.71085545  0.27416054  0.16959125    -0.81900
O299        O  0.76326443  0.16043758  0.19432371    -0.81800
O300        O  0.75039723  0.31019787  0.27874144    -0.81800
O301        O  0.72780933  0.32555257  0.22411112    -0.81900
O302        O  0.71975353  0.17537779  0.23422893    -0.81800
O303        O  0.74168896  0.28133049  0.30107900    -0.81800
O304        O  0.73033785  0.21794575  0.16828873    -0.81900
Co305      Co  0.74199192  0.21946168  0.26109639     1.51500
Co306      Co  0.75594243  0.29597159  0.18960296     1.51700
Co307      Co  0.77112415  0.20975302  0.20319550     1.51600
Co308      Co  0.78714171  0.26952709  0.27024253     1.51500
O309        O  0.76458213  0.25610278  0.22582679    -1.43800
C310        C  0.71364064  0.26320982  0.31168963     1.07800
C311        C  0.70992235  0.24276704  0.15654212     1.07900
C312        C  0.73488813  0.15233965  0.21245765     1.07800
C313        C  0.73094358  0.33079821  0.25785917     1.07800
O314        O  0.31284323  0.69525595  0.25503320    -0.81800
O315        O  0.18943643  0.67919328  0.26395693    -0.81800
O316        O  0.28175328  0.73995100  0.32376640    -0.81800
O317        O  0.21397680  0.71615468  0.17300124    -0.81800
O318        O  0.24798510  0.69161667  0.31465413    -0.81900
O319        O  0.25778875  0.67890044  0.19030957    -0.81800
O320        O  0.16176884  0.71518651  0.22478882    -0.81800
O321        O  0.31923456  0.74532129  0.28688672    -0.81900
C322        C  0.33166112  0.71529124  0.27623972     1.07900
C323        C  0.16359811  0.68574978  0.24201570     1.07800
C324        C  0.27220913  0.70845317  0.33279229     1.07900
C325        C  0.23408262  0.68890874  0.16718253     1.07800
O326        O  0.27592527  0.74737021  0.17876573    -0.81800
O327        O  0.21503211  0.75739881  0.33261914    -0.81900
O328        O  0.30280311  0.79720532  0.24678764    -0.81800
O329        O  0.17681240  0.78771822  0.24443488    -0.81800
O330        O  0.15985393  0.74659027  0.28406516    -0.81900
O331        O  0.31566514  0.74881339  0.21450402    -0.81800
O332        O  0.23354240  0.78786384  0.19054749    -0.81800
O333        O  0.24879521  0.80284531  0.31374639    -0.81900
Co334      Co  0.27365904  0.71716199  0.22366978     1.51500
Co335      Co  0.20543367  0.71908329  0.29526911     1.51700
Co336      Co  0.27063301  0.76838867  0.27939783     1.51600
Co337      Co  0.19915106  0.75197974  0.21155552     1.51500
O338        O  0.23466187  0.73895316  0.25256839    -1.43800
C339        C  0.25962868  0.77650716  0.17111490     1.07800
C340        C  0.22966928  0.78790217  0.33809300     1.07900
C341        C  0.32353315  0.78031244  0.22501160     1.07800
C342        C  0.15421109  0.77585747  0.26739964     1.07800
C343        C  0.08331520  0.83872498  0.30319424    -0.15000
C344        C  0.05226952  0.81633023  0.30322424     0.07100
C345        C  0.05398491  0.78366517  0.28484151    -0.15000
C346        C  0.08688658  0.77219281  0.27003546    -0.15000
C347        C  0.11862133  0.79310195  0.27313977     0.07100
C348        C  0.11621516  0.82720707  0.28823979    -0.15000
H349        H  0.08281487  0.86441577  0.31655235     0.11100
H350        H  0.03066454  0.76594217  0.28393249     0.11100
H351        H  0.08809334  0.74600981  0.25783669     0.11100
H352        H  0.14030971  0.84372329  0.29099868     0.11100
C353        C  0.83336260  0.10483909  0.32606720    -0.15000
C354        C  0.83917335  0.07567867  0.30308150     0.07100
C355        C  0.84054611  0.08171985  0.26571050    -0.15000
C356        C  0.83468449  0.11625682  0.25161244    -0.15000
C357        C  0.82644370  0.14489635  0.27464474     0.07100
C358        C  0.82673470  0.13885781  0.31202750    -0.15000
H359        H  0.83234179  0.10097876  0.35501432     0.11100
H360        H  0.84560004  0.05973189  0.24750534     0.11100
H361        H  0.83348030  0.11991454  0.22265684     0.11100
H362        H  0.81929119  0.15998284  0.33035208     0.11100
C363        C  0.77941557  0.20638951  0.38520714    -0.15000
C364        C  0.80564338  0.22439527  0.36466466     0.07100
C365        C  0.84160512  0.22645410  0.37758025    -0.15000
C366        C  0.85139368  0.20942340  0.40998156    -0.15000
C367        C  0.82502464  0.19132689  0.43035102     0.07100
C368        C  0.78889532  0.19050025  0.41798559    -0.15000
H369        H  0.75152102  0.20444066  0.37574281     0.11100
H370        H  0.86229611  0.23997350  0.36197195     0.11100
H371        H  0.87940023  0.21046217  0.41921431     0.11100
H372        H  0.76816949  0.17658952  0.43321621     0.11100
C373        C  0.21721737  0.83625044  0.38432074    -0.15000
C374        C  0.22781386  0.80136758  0.37581402     0.07100
C375        C  0.23192298  0.77638804  0.40419803    -0.15000
C376        C  0.22194400  0.78478234  0.43954786    -0.15000
C377        C  0.20720857  0.81836555  0.44736576     0.07100
C378        C  0.20681761  0.84461040  0.41977132    -0.15000
H379        H  0.21424478  0.85613571  0.36324223     0.11100
H380        H  0.24081541  0.74940401  0.39858161     0.11100
H381        H  0.22315724  0.76410060  0.46002123     0.11100
H382        H  0.19638128  0.87111811  0.42508764     0.11100
C383        C  0.22363994  0.06386643  0.70284606    -0.15000
C384        C  0.18776360  0.05689068  0.69170114     0.07100
C385        C  0.16450281  0.08553202  0.68328230    -0.15000
C386        C  0.17615885  0.12050546  0.68724845    -0.15000
C387        C  0.21158414  0.12776685  0.69887988     0.07100
C388        C  0.23568733  0.09937910  0.70600080    -0.15000
H389        H  0.24203574  0.04209816  0.70916994     0.11100
H390        H  0.13662702  0.08087695  0.67475149     0.11100
H391        H  0.15687420  0.14193307  0.68289177     0.11100
H392        H  0.26283838  0.10468226  0.71625150     0.11100
C393        C  0.10540528  0.19874798  0.65633879    -0.15000
C394        C  0.07133089  0.21272617  0.66667229     0.07100
C395        C  0.07107174  0.24578160  0.68465227    -0.15000
C396        C  0.10390914  0.26317136  0.69377166    -0.15000
C397        C  0.13797003  0.24765646  0.68590113     0.07100
C398        C  0.13813289  0.21581363  0.66595804    -0.15000
H399        H  0.10701482  0.17363214  0.64198787     0.11100
H400        H  0.04556737  0.25772364  0.69266274     0.11100
H401        H  0.10254336  0.28764261  0.70924931     0.11100
H402        H  0.16366596  0.20316627  0.65920706     0.11100
C403        C  0.01991908  0.91768609  0.39489255    -0.15000
C404        C  0.00137889  0.88576496  0.40232788     0.07100
C405        C  0.98501162  0.88073299  0.43601715    -0.15000
C406        C  0.98692073  0.90747905  0.46194234    -0.15000
C407        C  0.00442676  0.93975182  0.45405507     0.07100
C408        C  0.02098930  0.94484160  0.42054758    -0.15000
H409        H  0.03245603  0.92202275  0.36890173     0.11100
H410        H  0.97072975  0.85614772  0.44219638     0.11100
H411        H  0.97427182  0.90335267  0.48791980     0.11100
H412        H  0.03467927  0.96975361  0.41441837     0.11100
C413        C  0.89837522  0.97798811  0.42150463    -0.15000
C414        C  0.90148767  0.00404349  0.39439236     0.07100
C415        C  0.93148533  0.02739322  0.39479189    -0.15000
C416        C  0.95801274  0.02454802  0.42172149    -0.15000
C417        C  0.95439173  0.99905300  0.44917917     0.07100
C418        C  0.92448209  0.97577097  0.44894379    -0.15000
H419        H  0.87549499  0.95971077  0.42177390     0.11100
H420        H  0.93477704  0.04741843  0.37392974     0.11100
H421        H  0.98126905  0.04235130  0.42132209     0.11100
H422        H  0.92132551  0.95605307  0.47011476     0.11100
C423        C  0.92180518  0.04764329  0.52123973    -0.15000
C424        C  0.95509561  0.05316715  0.50409664     0.07100
C425        C  0.96085789  0.08460292  0.48419773    -0.15000
C426        C  0.93303074  0.10998144  0.48085612    -0.15000
C427        C  0.89971528  0.10452332  0.49834576     0.07100
C428        C  0.89451007  0.07329445  0.51878688    -0.15000
H429        H  0.91692500  0.02327257  0.53629773     0.11100
H430        H  0.98652314  0.08904103  0.47074014     0.11100
H431        H  0.93765904  0.13398629  0.46515371     0.11100
H432        H  0.86897340  0.06837825  0.53234124     0.11100
C433        C  0.98377831  0.05412914  0.58789730    -0.15000
C434        C  0.00986563  0.05130903  0.56080539     0.07100
C435        C  0.03712355  0.07742396  0.55786377    -0.15000
C436        C  0.03771851  0.10665723  0.58133285    -0.15000
C437        C  0.01067521  0.11032367  0.60763705     0.07100
C438        C  0.98398813  0.08351641  0.61094923    -0.15000
H439        H  0.96279017  0.03396597  0.59063174     0.11100
H440        H  0.05741312  0.07549662  0.53693499     0.11100
H441        H  0.05853168  0.12692247  0.57814456     0.11100
H442        H  0.96303585  0.08539531  0.63122459     0.11100
C443        C  0.07196518  0.96911139  0.62777068    -0.15000
C444        C  0.10749132  0.98195842  0.62323993     0.07100
C445        C  0.11758094  0.99755003  0.59032371    -0.15000
C446        C  0.09238967  0.00089655  0.56243973    -0.15000
C447        C  0.05667661  0.98919316  0.56731910     0.07100
C448        C  0.04646005  0.97303205  0.59989344    -0.15000
H449        H  0.06362230  0.95760557  0.65323548     0.11100
H450        H  0.14486818  0.00780101  0.58648621     0.11100
H451        H  0.10054859  0.01293942  0.53715876     0.11100
H452        H  0.01887187  0.96356884  0.60359946     0.11100
C453        C  0.05737305  0.90958151  0.53699057    -0.15000
C454        C  0.05807457  0.93669582  0.51083560     0.07100
C455        C  0.08581851  0.93705982  0.48514652    -0.15000
C456        C  0.11241365  0.91055058  0.48528186    -0.15000
C457        C  0.11217344  0.88353435  0.51160634     0.07100
C458        C  0.08445316  0.88335127  0.53761649    -0.15000
H459        H  0.03596751  0.90883340  0.55689321     0.11100
H460        H  0.08693534  0.95806933  0.46505680     0.11100
H461        H  0.13349203  0.91155193  0.46505221     0.11100
H462        H  0.08346612  0.86276868  0.55816628     0.11100
C463        C  0.65110024  0.28079048  0.39243474    -0.15000
C464        C  0.67649386  0.29480286  0.41751580     0.07100
C465        C  0.71324259  0.29555206  0.40817680    -0.15000
C466        C  0.72424638  0.28481353  0.37402570    -0.15000
C467        C  0.69910154  0.27208151  0.34811536     0.07100
C468        C  0.66245285  0.26874053  0.35817755    -0.15000
H469        H  0.62250719  0.27967153  0.39917002     0.11100
H470        H  0.73341532  0.30627135  0.42668436     0.11100
H471        H  0.75280414  0.28731291  0.36764651     0.11100
H472        H  0.64254804  0.25839984  0.33921854     0.11100
C473        C  0.30759638  0.41476726  0.67170913    -0.15000
C474        C  0.30955426  0.44551269  0.69365498     0.07100
C475        C  0.29193451  0.44509078  0.72711305    -0.15000
C476        C  0.27468346  0.41401427  0.73920269    -0.15000
C477        C  0.27419020  0.38303655  0.71788417     0.07100
C478        C  0.28999679  0.38379911  0.68373327    -0.15000
H479        H  0.32066155  0.41419009  0.64565618     0.11100
H480        H  0.29278215  0.46820898  0.74462718     0.11100
H481        H  0.26282913  0.41369446  0.76583502     0.11100
H482        H  0.29048499  0.35991959  0.66726912     0.11100
C483        C  0.42833050  0.72792069  0.30990174    -0.15000
C484        C  0.43987765  0.69267270  0.31505340     0.07100
C485        C  0.41637207  0.66447099  0.30484427    -0.15000
C486        C  0.38151488  0.67134162  0.29094762    -0.15000
C487        C  0.36927338  0.70655525  0.28771407     0.07100
C488        C  0.39331742  0.73477262  0.29661367    -0.15000
H489        H  0.44561994  0.75008997  0.31777432     0.11100
H490        H  0.42468187  0.63692632  0.30849285     0.11100
H491        H  0.36373502  0.64921975  0.28412434     0.11100
H492        H  0.38481814  0.76236685  0.29380325     0.11100
C493        C  0.70468135  0.36293938  0.31101158    -0.15000
C494        C  0.71283171  0.36237360  0.27409545     0.07100
C495        C  0.70861163  0.39415992  0.25406751    -0.15000
C496        C  0.69887133  0.42617853  0.27117134    -0.15000
C497        C  0.69163726  0.42661857  0.30828141     0.07100
C498        C  0.69353252  0.39445466  0.32774757    -0.15000
H499        H  0.70786134  0.33938416  0.32728477     0.11100
H500        H  0.71509643  0.39478095  0.22563828     0.11100
H501        H  0.69700577  0.45055172  0.25546878     0.11100
H502        H  0.68774239  0.39397087  0.35635173     0.11100
C503        C  0.33061926  0.70489819  0.41646051    -0.15000
C504        C  0.31100465  0.68157881  0.43848244     0.07100
C505        C  0.28082626  0.66326060  0.42411074    -0.15000
C506        C  0.26922342  0.66983037  0.38850802    -0.15000
C507        C  0.28812896  0.69434650  0.36678446     0.07100
C508        C  0.31944741  0.71111685  0.38101923    -0.15000
H509        H  0.35478322  0.71819964  0.42669521     0.11100
H510        H  0.26612776  0.64421300  0.44052994     0.11100
H511        H  0.24476107  0.65692647  0.37852701     0.11100
H512        H  0.33475388  0.73010404  0.36506439     0.11100
C513        C  0.42017820  0.27019087  0.69617147    -0.15000
C514        C  0.42243334  0.29451417  0.66748135     0.07100
C515        C  0.39016885  0.30324869  0.64837015    -0.15000
C516        C  0.35620618  0.29022253  0.65968287    -0.15000
C517        C  0.35401854  0.26788806  0.68993763     0.07100
C518        C  0.38641521  0.25722120  0.70727832    -0.15000
H519        H  0.44425727  0.26267342  0.71141671     0.11100
H520        H  0.39081093  0.32188235  0.62601840     0.11100
H521        H  0.33161218  0.29977544  0.64658920     0.11100
H522        H  0.38538330  0.24104284  0.73135096     0.11100
C523        C  0.45404944  0.58398566  0.51557621    -0.15000
C524        C  0.44356282  0.55191955  0.49873553     0.07100
C525        C  0.40746938  0.54760293  0.48719943    -0.15000
C526        C  0.38235587  0.57519587  0.49159882    -0.15000
C527        C  0.39263137  0.60736685  0.50835797     0.07100
C528        C  0.42861857  0.61146635  0.52066720    -0.15000
H529        H  0.48181309  0.58758307  0.52487696     0.11100
H530        H  0.39887983  0.52292634  0.47447515     0.11100
H531        H  0.35484301  0.57158426  0.48154779     0.11100
H532        H  0.43731950  0.63631277  0.53294484     0.11100
C533        C  0.41312242  0.47157915  0.55335697    -0.15000
C534        C  0.44340786  0.49415558  0.55027518     0.07100
C535        C  0.45130727  0.51865793  0.57774681    -0.15000
C536        C  0.42879455  0.52113903  0.60766778    -0.15000
C537        C  0.39844809  0.49853694  0.61098445     0.07100
C538        C  0.39094553  0.47350575  0.58372334    -0.15000
H539        H  0.40666465  0.45263942  0.53223146     0.11100
H540        H  0.47491983  0.53592342  0.57590868     0.11100
H541        H  0.43536038  0.54048093  0.62839658     0.11100
H542        H  0.36757485  0.45593587  0.58555649     0.11100
C543        C  0.52379710  0.58045676  0.45116903    -0.15000
C544        C  0.49884189  0.55317394  0.44323831     0.07100
C545        C  0.47556157  0.55642210  0.41343397    -0.15000
C546        C  0.47715407  0.58679146  0.39166167    -0.15000
C547        C  0.50237581  0.61413866  0.39925440     0.07100
C548        C  0.52582925  0.61063870  0.42907928    -0.15000
H549        H  0.54136284  0.57849913  0.47463698     0.11100
H550        H  0.45594181  0.53560523  0.40732957     0.11100
H551        H  0.45877731  0.58878289  0.36879242     0.11100
H552        H  0.54516732  0.63153348  0.43573616     0.11100
C553        C  0.58152572  0.51168299  0.44596612    -0.15000
C554        C  0.54949457  0.49347804  0.43668918     0.07100
C555        C  0.54830677  0.47280423  0.40519125    -0.15000
C556        C  0.57910119  0.47000294  0.38343597    -0.15000
C557        C  0.61103944  0.48861344  0.39255491     0.07100
C558        C  0.61189113  0.50971213  0.42378590    -0.15000
H559        H  0.58321308  0.52680011  0.47077257     0.11100
H560        H  0.52384677  0.45820316  0.39801662     0.11100
H561        H  0.57776949  0.45397114  0.35919277     0.11100
H562        H  0.63629869  0.52426119  0.43129485     0.11100
C563        C  0.57431023  0.43578871  0.50756604    -0.15000
C564        C  0.54414586  0.43367296  0.48448303     0.07100
C565        C  0.54163592  0.40547192  0.45965420    -0.15000
C566        C  0.56927585  0.37967204  0.45797182    -0.15000
C567        C  0.59921211  0.38141339  0.48173960     0.07100
C568        C  0.60132016  0.40977807  0.50651888    -0.15000
H569        H  0.57695473  0.45775519  0.52638110     0.11100
H570        H  0.51852551  0.40368657  0.44146649     0.11100
H571        H  0.56699269  0.35816612  0.43859688     0.11100
H572        H  0.62422094  0.41222437  0.52489429     0.11100
C573        C  0.46989690  0.40305314  0.53680601    -0.15000
C574        C  0.49106605  0.43392728  0.54116109     0.07100
C575        C  0.51225768  0.43840534  0.57230387    -0.15000
C576        C  0.51243476  0.41220158  0.59897338    -0.15000
C577        C  0.49062467  0.38156570  0.59530455     0.07100
C578        C  0.46931237  0.37712279  0.56400415    -0.15000
H579        H  0.45339125  0.39946370  0.51276195     0.11100
H580        H  0.52846438  0.46234004  0.57597152     0.11100
H581        H  0.52887624  0.41639361  0.62295945     0.11100
H582        H  0.45239703  0.35363817  0.56057745     0.11100
C583        C  0.80414944  0.25895788  0.04247230    -0.15000
C584        C  0.83278280  0.28381817  0.03957514     0.07100
C585        C  0.85712374  0.28722637  0.06893176    -0.15000
C586        C  0.85039595  0.26978282  0.10170288    -0.15000
C587        C  0.81949394  0.24817391  0.10578423     0.07100
C588        C  0.79762022  0.24133177  0.07528822    -0.15000
H589        H  0.78503607  0.25527999  0.02042937     0.11100
H590        H  0.87986982  0.30560770  0.06761905     0.11100
H591        H  0.86717858  0.27621282  0.12493082     0.11100
H592        H  0.77316273  0.22536891  0.07791832     0.11100
C593        C  0.05158849  0.27299419  0.79211221    -0.15000
C594        C  0.04749940  0.29761234  0.82051657     0.07100
C595        C  0.07696068  0.30247620  0.84450514    -0.15000
C596        C  0.11058129  0.28653596  0.83808087    -0.15000
C597        C  0.11582738  0.26488463  0.80771728     0.07100
C598        C  0.08545055  0.25645442  0.78602072    -0.15000
H599        H  0.02936159  0.26808130  0.77342843     0.11100
H600        H  0.07488161  0.32046406  0.86721263     0.11100
H601        H  0.13338617  0.29343514  0.85542747     0.11100
H602        H  0.08862540  0.23954732  0.76266809     0.11100
C603        C  0.85997132  0.41430238  0.19512123    -0.15000
C604        C  0.83663150  0.44252493  0.20517483     0.07100
C605        C  0.81007697  0.43554376  0.23139658    -0.15000
C606        C  0.80506969  0.40049820  0.24453450    -0.15000
C607        C  0.82580335  0.37193024  0.23097469     0.07100
C608        C  0.85417962  0.37947617  0.20730714    -0.15000
H609        H  0.88139255  0.41844814  0.17567147     0.11100
H610        H  0.79187944  0.45652066  0.24010355     0.11100
H611        H  0.78305524  0.39524333  0.26295039     0.11100
H612        H  0.87031784  0.35795932  0.19623987     0.11100
C613        C  0.09462342  0.62928129  0.19639726    -0.15000
C614        C  0.06264234  0.64138435  0.21325661     0.07100
C615        C  0.06596219  0.66060443  0.24562440    -0.15000
C616        C  0.10044225  0.67065097  0.25852835    -0.15000
C617        C  0.13188760  0.66207104  0.23903204     0.07100
C618        C  0.12883476  0.63977991  0.20909384    -0.15000
H619        H  0.09334518  0.61400575  0.17166824     0.11100
H620        H  0.04201264  0.66989315  0.25960975     0.11100
H621        H  0.10233753  0.68797464  0.28182389     0.11100
H622        H  0.15272296  0.63299668  0.19381312     0.11100
C623        C  0.20356831  0.39902029  0.88341577    -0.15000
C624        C  0.21983694  0.42949938  0.86787970     0.07100
C625        C  0.25312891  0.42549001  0.85004204    -0.15000
C626        C  0.26696009  0.39128593  0.84349056    -0.15000
C627        C  0.24714024  0.36075534  0.85367043     0.07100
C628        C  0.21695289  0.36488561  0.87603411    -0.15000
H629        H  0.17820078  0.40105697  0.89792357     0.11100
H630        H  0.26671205  0.44839038  0.83829168     0.11100
H631        H  0.29006836  0.38869605  0.82570964     0.11100
H632        H  0.20082552  0.34181317  0.88358883     0.11100
C633        C  0.24725727  0.68943535  0.10093531    -0.15000
C634        C  0.23082596  0.67255440  0.13078961     0.07100
C635        C  0.20273964  0.64828052  0.12414884    -0.15000
C636        C  0.18891581  0.64343200  0.08926656    -0.15000
C637        C  0.20245502  0.66316332  0.05968463     0.07100
C638        C  0.23304746  0.68508703  0.06570984    -0.15000
H639        H  0.26940491  0.70804210  0.10527196     0.11100
H640        H  0.18966982  0.63482898  0.14634233     0.11100
H641        H  0.16591066  0.62561174  0.08607756     0.11100
H642        H  0.24486811  0.70009703  0.04368273     0.11100
C643        C  0.07628607  0.48314056  0.95193545    -0.15000
C644        C  0.04702020  0.50308602  0.93844077     0.07100
C645        C  0.04942903  0.51997773  0.90486571    -0.15000
C646        C  0.08145560  0.51731943  0.88505337    -0.15000
C647        C  0.11090723  0.49724189  0.89855253     0.07100
C648        C  0.10793716  0.47996444  0.93199748    -0.15000
H649        H  0.07461354  0.47030931  0.97808772     0.11100
H650        H  0.02684683  0.53556109  0.89442457     0.11100
H651        H  0.08316738  0.53074903  0.85922929     0.11100
H652        H  0.13037399  0.46463004  0.94311041     0.11100
C653        C  0.04568830  0.58862749  0.96424652    -0.15000
C654        C  0.04458313  0.56056923  0.98943243     0.07100
C655        C  0.07292730  0.55710278  0.01464734    -0.15000
C656        C  0.10159105  0.58165887  0.01519306    -0.15000
C657        C  0.10296239  0.60986206  0.99000745     0.07100
C658        C  0.07472795  0.61299157  0.96438514    -0.15000
H659        H  0.02417743  0.59144775  0.94433547     0.11100
H660        H  0.07307763  0.53509366  0.03365886     0.11100
H661        H  0.12300146  0.57820145  0.03510172     0.11100
H662        H  0.07490854  0.63441712  0.94469970     0.11100
C663        C  0.00945917  0.54256875  0.07748716    -0.15000
C664        C  0.99127671  0.55555107  0.04682991     0.07100
C665        C  0.97459333  0.58913876  0.04750264    -0.15000
C666        C  0.97560725  0.60944435  0.07899488    -0.15000
C667        C  0.99410132  0.59660967  0.10963080     0.07100
C668        C  0.01135212  0.56322620  0.10859011    -0.15000
H669        H  0.02192504  0.51632445  0.07729514     0.11100
H670        H  0.96021510  0.59914260  0.02398878     0.11100
H671        H  0.96222281  0.63523434  0.07939173     0.11100
H672        H  0.02542607  0.55277680  0.13210220     0.11100
C673        C  0.93667771  0.47952752  0.07035048    -0.15000
C674        C  0.93301402  0.50496743  0.04287395     0.07100
C675        C  0.90564909  0.53093958  0.04489465    -0.15000
C676        C  0.88241578  0.53180141  0.07451086    -0.15000
C677        C  0.88608851  0.50637113  0.10222508     0.07100
C678        C  0.91320894  0.47999570  0.09962516    -0.15000
H679        H  0.95825475  0.45987876  0.06951923     0.11100
H680        H  0.90285935  0.55096149  0.02390072     0.11100
H681        H  0.86169670  0.55229599  0.07573453     0.11100
H682        H  0.91691043  0.46014797  0.12065179     0.11100
C683        C  0.94175348  0.41867000  0.00404554    -0.15000
C684        C  0.93294627  0.45092654  0.98675985     0.07100
C685        C  0.89943455  0.45439583  0.96891432    -0.15000
C686        C  0.87510665  0.42563600  0.96796728    -0.15000
C687        C  0.88377538  0.39324559  0.98537459     0.07100
C688        C  0.91717871  0.39016017  0.00374546    -0.15000
H689        H  0.96781280  0.41556166  0.01754458     0.11100
H690        H  0.89244940  0.47912036  0.95530371     0.11100
H691        H  0.84946548  0.42873766  0.95370353     0.11100
H692        H  0.92467482  0.36542630  0.01706102     0.11100
C693        C  0.00906294  0.42237750  0.93654739    -0.15000
C694        C  0.98766663  0.45300802  0.93170704     0.07100
C695        C  0.96619872  0.45669011  0.90059785    -0.15000
C696        C  0.96590446  0.42978218  0.87457616    -0.15000
C697        C  0.98742742  0.39902652  0.87919280     0.07100
C698        C  0.00919909  0.39567322  0.91032577    -0.15000
H699        H  0.02544845  0.41912719  0.96072908     0.11100
H700        H  0.94950984  0.48024805  0.89668160     0.11100
H701        H  0.94899664  0.43311052  0.85076145     0.11100
H702        H  0.02576640  0.37212161  0.91472095     0.11100
C703        C  0.31916814  0.82390537  0.10442736    -0.15000
C704        C  0.30701414  0.80864439  0.07170704     0.07100
C705        C  0.27526761  0.78770999  0.07206869    -0.15000
C706        C  0.25706340  0.78110682  0.10454301    -0.15000
C707        C  0.27063167  0.79443021  0.13739657     0.07100
C708        C  0.30136956  0.81656517  0.13692139    -0.15000
H709        H  0.34346569  0.84033745  0.10524181     0.11100
H710        H  0.26487332  0.77593010  0.04742784     0.11100
H711        H  0.23347771  0.76371616  0.10434554     0.11100
H712        H  0.31257029  0.82680851  0.16182643     0.11100
C713        C  0.41948695  0.77775110  0.19140024    -0.15000
C714        C  0.42851952  0.81385313  0.18959212     0.07100
C715        C  0.40348266  0.83979268  0.20126532    -0.15000
C716        C  0.36924399  0.82954490  0.21410933    -0.15000
C717        C  0.35953450  0.79337087  0.21396666     0.07100
C718        C  0.38533021  0.76764521  0.20317418    -0.15000
H719        H  0.43823166  0.75745410  0.18220941     0.11100
H720        H  0.41030676  0.86796418  0.19994786     0.11100
H721        H  0.35012216  0.84968126  0.22277343     0.11100
H722        H  0.37914306  0.73929511  0.20359133     0.11100
C723        C  0.37647097  0.21631999  0.82348748    -0.15000
C724        C  0.35575303  0.20511504  0.79357328     0.07100
C725        C  0.37113782  0.18048228  0.76939948    -0.15000
C726        C  0.40665594  0.16793582  0.77463436    -0.15000
C727        C  0.42710024  0.17918543  0.80451383     0.07100
C728        C  0.41164545  0.20307265  0.82913574    -0.15000
H729        H  0.36557024  0.23539476  0.84245754     0.11100
H730        H  0.35602030  0.17148692  0.74593846     0.11100
H731        H  0.41780113  0.14869994  0.75595321     0.11100
H732        H  0.42681954  0.21133196  0.85285816     0.11100
C733        C  0.25870966  0.07749146  0.80347430    -0.15000
C734        C  0.29129495  0.07394433  0.82318304     0.07100
C735        C  0.30693706  0.10516384  0.83821027    -0.15000
C736        C  0.29186191  0.13904374  0.83177379    -0.15000
C737        C  0.26001566  0.14266630  0.81119223     0.07100
C738        C  0.24310176  0.11145695  0.79790424    -0.15000
H739        H  0.24578171  0.05421542  0.79168217     0.11100
H740        H  0.33212727  0.10371583  0.85347409     0.11100
H741        H  0.30618305  0.16256683  0.84126165     0.11100
H742        H  0.21901671  0.11360631  0.78104860     0.11100
C743        C  0.68930983  0.23476928  0.05706895    -0.15000
C744        C  0.66947189  0.20257842  0.05609222     0.07100
C745        C  0.65786012  0.18788504  0.08921876    -0.15000
C746        C  0.66783263  0.20324453  0.12219546    -0.15000
C747        C  0.68880964  0.23446802  0.12332868     0.07100
C748        C  0.69858418  0.25070162  0.09037968    -0.15000
H749        H  0.69860061  0.24697519  0.03229303     0.11100
H750        H  0.64254077  0.16314858  0.08994771     0.11100
H751        H  0.66097045  0.18948826  0.14696687     0.11100
H752        H  0.71600567  0.27409819  0.09042670     0.11100
C753        C  0.73027578  0.05300178  0.19560950    -0.15000
C754        C  0.69381626  0.04877795  0.18495036     0.07100
C755        C  0.66979817  0.07791874  0.18897633    -0.15000
C756        C  0.68253708  0.11126729  0.20060415    -0.15000
C757        C  0.71961194  0.11618947  0.20776271     0.07100
C758        C  0.74311460  0.08655902  0.20650673    -0.15000
H759        H  0.74935636  0.03112437  0.19318286     0.11100
H760        H  0.64135220  0.07540652  0.18151874     0.11100
H761        H  0.66395619  0.13369099  0.20157563     0.11100
H762        H  0.77181341  0.08974578  0.21247457     0.11100
C763        C  0.40144442  0.01777718  0.95054541    -0.15000
C764        C  0.43441654  0.00001110  0.94465084     0.07100
C765        C  0.44073321  0.98346962  0.91148479    -0.15000
C766        C  0.41432186  0.98475804  0.88429393    -0.15000
C767        C  0.38158953  0.00330919  0.88968862     0.07100
C768        C  0.37531090  0.01978738  0.92304896    -0.15000
H769        H  0.39637169  0.03067108  0.97612172     0.11100
H770        H  0.46624542  0.96987567  0.90662480     0.11100
H771        H  0.41985280  0.97204789  0.85872356     0.11100
H772        H  0.35016368  0.03403534  0.92786442     0.11100
C773        C  0.40905314  0.94198999  0.02403667    -0.15000
C774        C  0.43704667  0.94374611  0.99868215     0.07100
C775        C  0.44276188  0.91494005  0.97533512    -0.15000
C776        C  0.42088701  0.88447683  0.97752817    -0.15000
C777        C  0.39328567  0.88221345  0.00349047     0.07100
C778        C  0.38748329  0.91135214  0.02662002    -0.15000
H779        H  0.40464948  0.96394990  0.04246963     0.11100
H780        H  0.46481052  0.91570682  0.95612742     0.11100
H781        H  0.42607193  0.86241521  0.95943054     0.11100
H782        H  0.36623205  0.91051310  0.04667012     0.11100
C783        C  0.54092056  0.08711307  0.01625883    -0.15000
C784        C  0.54655832  0.05456132  0.99858286     0.07100
C785        C  0.57914425  0.04858610  0.98021771    -0.15000
C786        C  0.60544018  0.07546039  0.97850927    -0.15000
C787        C  0.59991449  0.10810401  0.99622680     0.07100
C788        C  0.56772131  0.11358080  0.01555469    -0.15000
H789        H  0.51582891  0.09189812  0.03058952     0.11100
H790        H  0.58388505  0.02334440  0.96680390     0.11100
H791        H  0.63025085  0.07065396  0.96371554     0.11100
H792        H  0.56295461  0.13864253  0.02930248     0.11100
C793        C  0.51985214  0.07102946  0.88582639    -0.15000
C794        C  0.49460506  0.09903843  0.88315914     0.07100
C795        C  0.46858551  0.10346230  0.91041169    -0.15000
C796        C  0.46776727  0.08021310  0.93977475    -0.15000
C797        C  0.49251289  0.05192740  0.94192679     0.07100
C798        C  0.51847641  0.04733208  0.91484551    -0.15000
H799        H  0.53992619  0.06686547  0.86503798     0.11100
H800        H  0.44887668  0.12494564  0.90906729     0.11100
H801        H  0.44764564  0.08397716  0.96060286     0.11100
H802        H  0.53738421  0.02516148  0.91604629     0.11100
C803        C  0.47391528  0.94921340  0.08598259    -0.15000
C804        C  0.49201470  0.94504028  0.05319530     0.07100
C805        C  0.50883670  0.91258954  0.04484056    -0.15000
C806        C  0.50867120  0.88474741  0.06969809    -0.15000
C807        C  0.49060918  0.88881955  0.10253730     0.07100
C808        C  0.47274326  0.92092143  0.11043449    -0.15000
H809        H  0.46031822  0.97408375  0.09224364     0.11100
H810        H  0.52203526  0.90893958  0.01909654     0.11100
H811        H  0.52219788  0.85990282  0.06316881     0.11100
H812        H  0.45868692  0.92431652  0.13576913     0.11100
C813        C  0.57558302  0.97122702  0.04706860    -0.15000
C814        C  0.54944547  0.99800383  0.05159055     0.07100
C815        C  0.55368281  0.02299038  0.07942580    -0.15000
C816        C  0.58379304  0.02102831  0.10262512    -0.15000
C817        C  0.60955382  0.99355435  0.09865082     0.07100
C818        C  0.60510441  0.96870720  0.07064431    -0.15000
H819        H  0.57318009  0.95234765  0.02511071     0.11100
H820        H  0.53376126  0.04396109  0.08307391     0.11100
H821        H  0.58660689  0.04059110  0.12393888     0.11100
H822        H  0.62474150  0.94755056  0.06658904     0.11100
C823        C  0.80054573  0.90160570  0.26778242    -0.15000
C824        C  0.78803069  0.87635098  0.29324611     0.07100
C825        C  0.78743761  0.88634506  0.32968955    -0.15000
C826        C  0.80075032  0.92003302  0.34043081    -0.15000
C827        C  0.81352475  0.94492406  0.31478959     0.07100
C828        C  0.81252563  0.93556429  0.27834186    -0.15000
H829        H  0.80164518  0.89505362  0.23969628     0.11100
H830        H  0.77789441  0.86774118  0.34996799     0.11100
H831        H  0.80146549  0.92653808  0.36882479     0.11100
H832        H  0.82273572  0.95387280  0.25805711     0.11100
C833        C  0.69780423  0.85457482  0.15293772    -0.15000
C834        C  0.73214772  0.85041061  0.16891260     0.07100
C835        C  0.75446876  0.88077711  0.17281745    -0.15000
C836        C  0.74099749  0.91513230  0.16524746    -0.15000
C837        C  0.70530740  0.91955332  0.15230075     0.07100
C838        C  0.68459693  0.88870223  0.14442995    -0.15000
H839        H  0.67998996  0.83171124  0.14989973     0.11100
H840        H  0.78106772  0.87812427  0.18487076     0.11100
H841        H  0.75795643  0.93820454  0.17089163     0.11100
H842        H  0.65706521  0.89096588  0.13409818     0.11100
C843        C  0.87528536  0.70324435  0.18103786    -0.15000
C844        C  0.86399310  0.70035074  0.21696796     0.07100
C845        C  0.88714603  0.68324486  0.24212102    -0.15000
C846        C  0.92103006  0.67010029  0.23192354    -0.15000
C847        C  0.93208252  0.67257279  0.19604697     0.07100
C848        C  0.90886398  0.68899688  0.17057404    -0.15000
H849        H  0.85813110  0.71619206  0.16107226     0.11100
H850        H  0.87911373  0.67980701  0.26989720     0.11100
H851        H  0.93801257  0.65679687  0.25182061     0.11100
H852        H  0.91677474  0.69082595  0.14255836     0.11100
C853        C  0.88197847  0.75328491  0.32232403    -0.15000
C854        C  0.85139831  0.77491059  0.32887679     0.07100
C855        C  0.85670706  0.80862373  0.34424804    -0.15000
C856        C  0.89199645  0.82122229  0.35099763    -0.15000
C857        C  0.92270447  0.80071416  0.34152402     0.07100
C858        C  0.91732929  0.76617285  0.32808385    -0.15000
H859        H  0.87854399  0.72756713  0.30957900     0.11100
H860        H  0.83382378  0.82631676  0.34823955     0.11100
H861        H  0.89523801  0.84805123  0.36146464     0.11100
H862        H  0.94034977  0.74962179  0.32099350     0.11100
C863        C  0.75367280  0.59976764  0.32457157    -0.15000
C864        C  0.72884546  0.62828579  0.32076952     0.07100
C865        C  0.69150036  0.62097952  0.32301783    -0.15000
C866        C  0.67904339  0.58625465  0.32855681    -0.15000
C867        C  0.70346447  0.55752096  0.33136418     0.07100
C868        C  0.74101728  0.56447187  0.32948554    -0.15000
H869        H  0.78258790  0.60450594  0.32185880     0.11100
H870        H  0.67169662  0.64216818  0.31941040     0.11100
H871        H  0.64996793  0.58172532  0.32995435     0.11100
H872        H  0.76040729  0.54279528  0.33202715     0.11100
C873        C  0.76471568  0.60590501  0.22156110    -0.15000
C874        C  0.76771453  0.63629392  0.19923823     0.07100
C875        C  0.78566311  0.63303870  0.16628959    -0.15000
C876        C  0.80156280  0.60021612  0.15669029    -0.15000
C877        C  0.79993068  0.57010697  0.17993203     0.07100
C878        C  0.78050209  0.57328957  0.21211198    -0.15000
H879        H  0.75120957  0.60784314  0.24729919     0.11100
H880        H  0.78913741  0.65616925  0.14903810     0.11100
H881        H  0.81625305  0.59884810  0.13154304     0.11100
H882        H  0.77855183  0.55098734  0.23067121     0.11100
C883        C  0.62052391  0.81787049  0.19419776    -0.15000
C884        C  0.63025111  0.78165194  0.19465269     0.07100
C885        C  0.60485507  0.75590573  0.18302272    -0.15000
C886        C  0.56980183  0.76649756  0.17192887    -0.15000
C887        C  0.56053245  0.80291053  0.17154630     0.07100
C888        C  0.58635122  0.82841557  0.18212163    -0.15000
H889        H  0.63916704  0.83805048  0.20420024     0.11100
H890        H  0.61144227  0.72770909  0.18438398     0.11100
H891        H  0.55006826  0.74650946  0.16381171     0.11100
H892        H  0.57957390  0.85662224  0.18224453     0.11100
C893        C  0.63719439  0.71330087  0.35247333    -0.15000
C894        C  0.64002941  0.74375403  0.33065936     0.07100
C895        C  0.60777792  0.76118364  0.31973969    -0.15000
C896        C  0.57344270  0.74698316  0.32825550    -0.15000
C897        C  0.57062232  0.71503450  0.34806799     0.07100
C898        C  0.60300455  0.69932707  0.36138479    -0.15000
H899        H  0.66141764  0.69845112  0.35992900     0.11100
H900        H  0.60915639  0.78388160  0.30159465     0.11100
H901        H  0.54926980  0.75989283  0.31760650     0.11100
H902        H  0.60218678  0.67464866  0.37666329     0.11100
C903        C  0.85553252  0.34371720  0.77897477    -0.15000
C904        C  0.85276141  0.31400779  0.75632051     0.07100
C905        C  0.88486932  0.29717698  0.74475469    -0.15000
C906        C  0.91875481  0.30691870  0.75889370    -0.15000
C907        C  0.92130167  0.33401814  0.78479950     0.07100
C908        C  0.88959864  0.35365850  0.79314723    -0.15000
H909        H  0.83147752  0.35722796  0.78786531     0.11100
H910        H  0.88339112  0.27414623  0.72715166     0.11100
H911        H  0.94248923  0.29168766  0.75126702     0.11100
H912        H  0.89057915  0.37525427  0.81256214     0.11100
C913        C  0.87161597  0.19397151  0.66685772    -0.15000
C914        C  0.86347971  0.19602839  0.70369997     0.07100
C915        C  0.89252613  0.19504114  0.72872779    -0.15000
C916        C  0.92886279  0.19202227  0.71700833    -0.15000
C917        C  0.93669480  0.18955606  0.68005905     0.07100
C918        C  0.90754186  0.19000871  0.65526438    -0.15000
H919        H  0.85015871  0.19659548  0.64687508     0.11100
H920        H  0.88723838  0.19841359  0.75719536     0.11100
H921        H  0.95070829  0.19107722  0.73674434     0.11100
H922        H  0.91268486  0.18775588  0.62663740     0.11100
C923        C  0.67684650  0.17610647  0.85834982    -0.15000
C924        C  0.71348621  0.18456620  0.85263307     0.07100
C925        C  0.73670453  0.18759966  0.88292911    -0.15000
C926        C  0.72314956  0.18321185  0.91819175    -0.15000
C927        C  0.68623581  0.17506572  0.92364956     0.07100
C928        C  0.66359177  0.17073266  0.89315786    -0.15000
H929        H  0.65788670  0.17579525  0.83596590     0.11100
H930        H  0.76471470  0.19588325  0.87943910     0.11100
H931        H  0.74134237  0.18641350  0.94105245     0.11100
H932        H  0.63495973  0.16461013  0.89630170     0.11100
C933        C  0.75185702  0.28800391  0.88193826    -0.15000
C934        C  0.76098606  0.30739767  0.85073586     0.07100
C935        C  0.78163991  0.33863778  0.85431030    -0.15000
C936        C  0.79661743  0.34771076  0.88803019    -0.15000
C937        C  0.79100443  0.32569539  0.91852761     0.07100
C938        C  0.76676326  0.29687833  0.91543949    -0.15000
H939        H  0.73561016  0.26388139  0.87982633     0.11100
H940        H  0.78850079  0.35415625  0.83096925     0.11100
H941        H  0.81461604  0.37066681  0.88955137     0.11100
H942        H  0.76112788  0.27980484  0.93829792     0.11100
C943        C  0.59396387  0.19766815  0.74565239    -0.15000
C944        C  0.62609340  0.17962161  0.75519772     0.07100
C945        C  0.62397699  0.14864174  0.77630307    -0.15000
C946        C  0.59026545  0.13752642  0.78999286    -0.15000
C947        C  0.55823418  0.15714763  0.78249791     0.07100
C948        C  0.56036888  0.18651240  0.75896508    -0.15000
H949        H  0.59517859  0.22176892  0.72944800     0.11100
H950        H  0.64851931  0.13451518  0.78412201     0.11100
H951        H  0.58958469  0.11456610  0.80780913     0.11100
H952        H  0.53645485  0.20223309  0.75250425     0.11100
C953        C  0.58516703  0.29740804  0.74815415    -0.15000
C954        C  0.61838626  0.30929534  0.73381014     0.07100
C955        C  0.61785038  0.33046225  0.70263219    -0.15000
C956        C  0.58506278  0.33812595  0.68499419    -0.15000
C957        C  0.55187467  0.32402358  0.69754598     0.07100
C958        C  0.55215222  0.30449193  0.73004307    -0.15000
H959        H  0.58501835  0.28012976  0.77164740     0.11100
H960        H  0.64311931  0.33924977  0.69066930     0.11100
H961        H  0.58614907  0.35344979  0.66020467     0.11100
H962        H  0.52716423  0.29345593  0.74062400     0.11100
C963        C  0.75071674  0.30207897  0.58246155    -0.15000
C964        C  0.73340302  0.31146270  0.61480264     0.07100
C965        C  0.69929534  0.32809061  0.61295689    -0.15000
C966        C  0.68224513  0.33425470  0.57974262    -0.15000
C967        C  0.69839456  0.32312576  0.54729629     0.07100
C968        C  0.73325177  0.30761271  0.54897251    -0.15000
H969        H  0.77645140  0.28799193  0.58324026     0.11100
H970        H  0.68490289  0.33456664  0.63745087     0.11100
H971        H  0.65541128  0.34620942  0.57974440     0.11100
H972        H  0.74652108  0.29885688  0.52457949     0.11100
C973        C  0.79015696  0.15590054  0.62209972    -0.15000
C974        C  0.76491872  0.18383034  0.62243466     0.07100
C975        C  0.75491433  0.20055576  0.58997547    -0.15000
C976        C  0.77135798  0.19091676  0.55769509    -0.15000
C977        C  0.79836659  0.16441491  0.55735556     0.07100
C978        C  0.80668384  0.14610582  0.58969992    -0.15000
H979        H  0.79884713  0.14341797  0.64708969     0.11100
H980        H  0.73597580  0.22275382  0.59001172     0.11100
H981        H  0.76425585  0.20556410  0.53343437     0.11100
H982        H  0.82734194  0.12548780  0.59039233     0.11100
C983        C  0.30295645  0.73863435  0.90589798    -0.15000
C984        C  0.32414857  0.74787147  0.87571627     0.07100
C985        C  0.35506660  0.76921471  0.88113244    -0.15000
C986        C  0.36283354  0.78355151  0.91513218    -0.15000
C987        C  0.33948389  0.77753052  0.94457146     0.07100
C988        C  0.31027278  0.75363247  0.93991575    -0.15000
H989        H  0.27914667  0.72186702  0.90268768     0.11100
H990        H  0.37213991  0.77652106  0.85859760     0.11100
H991        H  0.38614835  0.80110430  0.91774538     0.11100
H992        H  0.29191669  0.74805698  0.96194346     0.11100
C993        C  0.17511951  0.70943184  0.86578320    -0.15000
C994        C  0.19851888  0.73916428  0.86693658     0.07100
C995        C  0.20929331  0.75215572  0.90111030    -0.15000
C996        C  0.19952013  0.73398400  0.93295579    -0.15000
C997        C  0.17798823  0.70287768  0.93147296     0.07100
C998        C  0.16490650  0.69172317  0.89746847    -0.15000
H999        H  0.16634210  0.69842445  0.84016370     0.11100
H1000       H  0.22739903  0.77492927  0.90318016     0.11100
H1001       H  0.20963692  0.74372268  0.95861363     0.11100
H1002       H  0.14807519  0.66806399  0.89503526     0.11100
C1003       C  0.20596702  0.90150710  0.77614323    -0.15000
C1004       C  0.19241606  0.86796490  0.76548631     0.07100
C1005       C  0.16367835  0.86674036  0.74030127    -0.15000
C1006       C  0.15198755  0.89768418  0.72282677    -0.15000
C1007       C  0.16853021  0.93078583  0.73022761     0.07100
C1008       C  0.19419009  0.93272784  0.75852164    -0.15000
H1009       H  0.22783632  0.90334865  0.79577634     0.11100
H1010       H  0.15219710  0.84142152  0.73174350     0.11100
H1011       H  0.13152916  0.89511742  0.70183461     0.11100
H1012       H  0.20679975  0.95796857  0.76552623     0.11100
C1013       C  0.29461259  0.94264923  0.76052766    -0.15000
C1014       C  0.32366902  0.94795741  0.78481884     0.07100
C1015       C  0.34917526  0.91994954  0.78895190    -0.15000
C1016       C  0.34366362  0.88655663  0.77280528    -0.15000
C1017       C  0.31270229  0.87997042  0.75145936     0.07100
C1018       C  0.28941057  0.90911679  0.74376367    -0.15000
H1019       H  0.27480523  0.96363220  0.75605991     0.11100
H1020       H  0.37263716  0.92299992  0.80650439     0.11100
H1021       H  0.36245188  0.86510203  0.77914143     0.11100
H1022       H  0.26543182  0.90521168  0.72712389     0.11100
C1023       C  0.29181131  0.75325112  0.59959869    -0.15000
C1024       C  0.30708940  0.74338703  0.63299496     0.07100
C1025       C  0.33636460  0.71916392  0.63297099    -0.15000
C1026       C  0.34713688  0.70190212  0.60126247    -0.15000
C1027       C  0.32954424  0.70906861  0.56822206     0.07100
C1028       C  0.30280330  0.73621611  0.56758085    -0.15000
H1029       H  0.26942002  0.77200057  0.59856741     0.11100
H1030       H  0.34949186  0.71198324  0.65813936     0.11100
H1031       H  0.36830626  0.68182988  0.60302689     0.11100
H1032       H  0.28895558  0.74303088  0.54264978     0.11100
C1033       C  0.20027366  0.73927594  0.61174002    -0.15000
C1034       C  0.18939433  0.75584220  0.64403090     0.07100
C1035       C  0.17227987  0.78918533  0.64220675    -0.15000
C1036       C  0.16665557  0.80598225  0.60905464    -0.15000
C1037       C  0.17842262  0.79019786  0.57668920     0.07100
C1038       C  0.19511908  0.75646113  0.57832952    -0.15000
H1039       H  0.21407979  0.71371102  0.61242851     0.11100
H1040       H  0.16393648  0.80274397  0.66655985     0.11100
H1041       H  0.15377754  0.83200703  0.60898025     0.11100
H1042       H  0.20435603  0.74354616  0.55396317     0.11100
C1043       C  0.33782219  0.61362292  0.75562582    -0.15000
C1044       C  0.33284675  0.64220136  0.73148531     0.07100
C1045       C  0.33808096  0.63596370  0.69444481    -0.15000
C1046       C  0.34477573  0.60183202  0.68153756    -0.15000
C1047       C  0.34671978  0.57273144  0.70521554     0.07100
C1048       C  0.34421163  0.57885713  0.74252837    -0.15000
H1049       H  0.33322189  0.61746920  0.78414781     0.11100
H1050       H  0.33250586  0.65662144  0.67493957     0.11100
H1051       H  0.34611989  0.59788843  0.65260212     0.11100
H1052       H  0.34607490  0.55675332  0.76129719     0.11100
C1053       C  0.24435826  0.59146513  0.79700973    -0.15000
C1054       C  0.21781486  0.61604333  0.78537872     0.07100
C1055       C  0.18114253  0.60614175  0.78565665    -0.15000
C1056       C  0.17100776  0.57314744  0.80047239    -0.15000
C1057       C  0.19752723  0.54955592  0.81453731     0.07100
C1058       C  0.23437630  0.55830476  0.81104352    -0.15000
H1059       H  0.27280274  0.59878467  0.79711882     0.11100
H1060       H  0.16032728  0.62484070  0.77701052     0.11100
H1061       H  0.14234097  0.56685362  0.80260172     0.11100
H1062       H  0.25535891  0.54078940  0.82167436     0.11100
loop_ 
_geom_bond_atom_site_label_1 
_geom_bond_atom_site_label_2 
_geom_bond_distance 
_geom_bond_site_symmetry_2 
_ccdc_geom_bond_type 
O1            C9   1.273       .  A
O1          Co21   2.053       .  S
O2           C10   1.276       .  A
O2          Co22   2.044       .  S
O3           C11   1.263       .  A
O3          Co23   1.953       .  S
O4           C12   1.256       .  A
O4          Co24   1.979       .  S
O5           C11   1.284       .  A
O5          Co22   2.061       .  S
O6           C12   1.256       .  A
O6          Co21   2.011       .  S
O7           C10   1.265       .  A
O7          Co24   1.972       .  S
O8            C9   1.240       .  A
O8          Co23   1.898       .  S
C9         C1044   1.473       .  S
C10        C1017   1.501       .  S
C11        C1024   1.494       .  S
C12         C984   1.488       .  S
O13          C26   1.269       .  A
O13         Co21   1.978       .  S
O14          C27   1.249       .  A
O14         Co22   1.949       .  S
O15          C28   1.292       .  A
O15         Co23   2.083       .  S
O16          C29   1.260       .  A
O16         Co24   2.027       .  S
O17          C29   1.245       .  A
O17         Co22   1.953       .  S
O18          C28   1.257       .  A
O18         Co21   1.886       .  S
O19          C26   1.278       .  A
O19         Co24   2.041       .  S
O20          C27   1.236       .  A
O20         Co23   1.984       .  S
Co21         O25   2.013       .  S
Co22         O25   2.094       .  S
Co23         O25   2.142       .  S
Co24         O25   2.118       .  S
C26         C994   1.497       .  S
C27        C1034   1.480       .  S
C28        C1054   1.467       .  S
C29        C1004   1.482       .  S
O30          C38   1.239       .  A
O30         Co50   1.968       .  S
O31          C39   1.295       .  A
O31         Co51   2.015       .  S
O32          C40   1.282       .  A
O32         Co52   2.004       .  S
O33          C41   1.245       .  A
O33         Co53   2.015       .  S
O34          C40   1.295       .  A
O34         Co51   2.017       .  S
O35          C41   1.238       .  A
O35         Co50   1.972       .  S
O36          C39   1.284       .  A
O36         Co53   2.005       .  S
O37          C38   1.244       .  A
O37         Co52   2.005       .  S
C38         C974   1.461       .  S
C39         C924   1.480       .  S
C40         C914   1.484       .  S
C41         C944   1.470       .  S
O42          C55   1.306       .  A
O42         Co50   2.108       .  S
O43          C56   1.268       .  A
O43         Co51   1.986       .  S
O44          C57   1.287       .  A
O44         Co52   1.910       .  S
O45          C58   1.273       .  A
O45         Co53   1.996       .  S
O46          C58   1.266       .  A
O46         Co51   1.984       .  S
O47          C57   1.304       .  A
O47         Co50   2.101       .  S
O48          C55   1.287       .  A
O48         Co53   1.904       .  S
O49          C56   1.274       .  A
O49         Co52   1.995       .  S
Co50         O54   2.123       .  S
Co51         O54   2.050       .  S
Co52         O54   1.982       .  S
Co53         O54   1.981       .  S
C55         C954   1.475       .  S
C56         C904   1.474       .  S
C57         C964   1.478       .  S
C58         C934   1.474       .  S
O59          C67   1.265       .  A
O59         Co79   1.984       .  S
O60          C68   1.282       .  A
O60         Co80   2.000       .  S
O61          C69   1.281       .  A
O61         Co81   2.016       .  S
O62          C70   1.249       .  A
O62         Co82   2.033       .  S
O63          C69   1.283       .  A
O63         Co80   1.991       .  S
O64          C70   1.251       .  A
O64         Co79   1.993       .  S
O65          C68   1.277       .  A
O65         Co82   2.004       .  S
O66          C67   1.263       .  A
O66         Co81   1.989       .  S
C67         C884   1.469       .  S
C68         C844   1.483       .  S
C69         C834   1.474       .  S
C70         C874   1.481       .  S
O71          C84   1.308       .  A
O71         Co79   2.121       .  S
O72          C85   1.263       .  A
O72         Co80   2.004       .  S
O73          C86   1.275       .  A
O73         Co81   1.999       .  S
O74          C87   1.282       .  A
O74         Co82   1.988       .  S
O75          C87   1.276       .  A
O75         Co80   2.002       .  S
O76          C86   1.266       .  A
O76         Co79   1.991       .  S
O77          C84   1.287       .  A
O77         Co82   1.914       .  S
O78          C85   1.270       .  A
O78         Co81   2.007       .  S
Co79         O83   2.118       .  S
Co80         O83   2.070       .  S
Co81         O83   2.074       .  S
Co82         O83   1.979       .  S
C84         C864   1.482       .  S
C85         C824   1.496       .  S
C86         C894   1.475       .  S
C87         C854   1.468       .  S
C88         C814   1.481   1_545  S
C88          C89   1.408   1_545  A
C88          C93   1.406   1_554  A
C89         C804   1.468       .  S
C89          C90   1.408   1_554  A
C90         C774   1.481       .  S
C90          C91   1.404   1_565  A
C91         C764   1.477       .  S
C91          C92   1.411       .  A
C92         C797   1.474       .  S
C92          C93   1.409       .  A
C93         C784   1.477       .  S
C94         C837   1.489       .  S
C94          N95   1.355       .  A
C94          N99   1.369       .  A
N95          C96   1.353       .  A
C96         C817   1.474       .  S
C96          N97   1.353   1_565  A
N97          C98   1.358       .  A
C98         C754   1.486       .  S
C98          N99   1.370   1_545  A
C100        C744   1.501       .  S
C100        N101   1.376   1_554  A
C100        N105   1.359       .  A
N101        C102   1.376       .  A
C102        C927   1.492       .  S
C102        N103   1.356       .  A
N103        C104   1.350       .  A
C104        C787   1.468       .  S
C104        N105   1.351   1_556  A
C106        C734   1.499       .  S
C106        N107   1.359       .  A
C106        N111   1.378       .  A
N107        C108   1.352       .  A
C108        C767   1.473       .  S
C108        N109   1.351   1_545  A
N109        C110   1.357       .  A
C110       C1014   1.505       .  S
C110        N111   1.376   1_565  A
C112        C727   1.468       .  S
C112        N113   1.350       .  A
C112        N117   1.362       .  A
N113        C114   1.352       .  A
C114        C794   1.470       .  S
C114        N115   1.358       .  A
N115        C116   1.360       .  A
C116        C947   1.488       .  S
C116        N117   1.367       .  A
C118        C714   1.461       .  S
C118        N119   1.353       .  A
C118        N123   1.364       .  A
N119        C120   1.350       .  A
C120        C807   1.455       .  S
C120        N121   1.351       .  A
N121        C122   1.353       .  A
C122        C887   1.466       .  S
C122        N123   1.360       .  A
C124        C704   1.491       .  S
C124        N125   1.358       .  A
C124        N129   1.370       .  A
N125        C126   1.355       .  A
C126        C777   1.477       .  S
C126        N127   1.354   1_554  A
N127        C128   1.358       .  A
C128        C987   1.494       .  S
C128        N129   1.369   1_556  A
C130        C654   1.490       .  S
C130        C131   1.408       .  A
C130        C135   1.408   1_456  A
C131        C644   1.468       .  S
C131        C132   1.409   1_455  A
C132        C694   1.478       .  S
C132        C133   1.408       .  A
C133        C684   1.481       .  S
C133        C134   1.408   1_556  A
C134        C674   1.477       .  S
C134        C135   1.412       .  A
C135        C664   1.472       .  S
C136        C997   1.501       .  S
C136        N137   1.364       .  A
C136        N141   1.375       .  A
N137        C138   1.357       .  A
C138        C657   1.486       .  S
C138        N139   1.352   1_556  A
N139        C140   1.356       .  A
C140        C637   1.503       .  S
C140        N141   1.373   1_554  A
C142       C1057   1.477       .  S
C142        N143   1.355       .  A
C142        N147   1.365       .  A
N143        C144   1.352       .  A
C144        C647   1.466       .  S
C144        N145   1.353       .  A
N145        C146   1.355       .  A
C146        C624   1.485       .  S
C146        N147   1.365       .  A
C148        C847   1.474       .  S
C148        N149   1.355       .  A
C148        N153   1.367       .  A
N149        C150   1.352       .  A
C150        C667   1.463       .  S
C150        N151   1.352   1_655  A
N151        C152   1.356       .  A
C152        C614   1.487       .  S
C152        N153   1.366   1_455  A
C154        C877   1.495       .  S
C154        N155   1.376       .  A
C154        N159   1.360       .  A
N155        C156   1.370       .  A
C156        C604   1.496       .  S
C156        N157   1.353       .  A
N157        C158   1.349       .  A
C158        C677   1.474       .  S
C158        N159   1.354       .  A
C160        C594   1.495       .  S
C160        N161   1.366   1_455  A
C160        N165   1.360       .  A
N161        C162   1.370       .  A
C162        C907   1.488       .  S
C162        N163   1.357       .  A
N163        C164   1.353       .  A
C164        C697   1.476       .  S
C164        N165   1.355   1_655  A
C166        C584   1.496       .  S
C166        N167   1.361       .  A
C166        N171   1.365   1_554  A
N167        C168   1.359   1_554  A
C168        C687   1.477       .  S
C168        N169   1.355       .  A
N169        C170   1.357       .  A
C170        C937   1.488       .  S
C170        N171   1.367       .  A
C172        C574   1.474       .  S
C172        C173   1.409       .  A
C172        C177   1.411       .  A
C173        C564   1.485       .  S
C173        C174   1.410       .  A
C174        C554   1.480       .  S
C174        C175   1.414       .  A
C175        C544   1.473       .  S
C175        C176   1.412       .  A
C176        C524   1.488       .  S
C176        C177   1.410       .  A
C177        C534   1.481       .  S
C178        C957   1.493       .  S
C178        N179   1.366       .  A
C178        N183   1.356       .  A
N179        C180   1.370       .  A
C180        C514   1.491       .  S
C180        N181   1.358       .  A
N181        C182   1.355       .  A
C182        C577   1.471       .  S
C182        N183   1.354       .  A
C184       C1027   1.503       .  S
C184        N185   1.370       .  A
C184        N189   1.367       .  A
N185        C186   1.365       .  A
C186        C527   1.477       .  S
C186        N187   1.352       .  A
N187        C188   1.349       .  A
C188        C504   1.468       .  S
C188        N189   1.363       .  A
C190        C867   1.481       .  S
C190        N191   1.353       .  A
C190        N195   1.366       .  A
N191        C192   1.350       .  A
C192        C557   1.469       .  S
C192        N193   1.356       .  A
N193        C194   1.361       .  A
C194        C497   1.481       .  S
C194        N195   1.370       .  A
C196        C897   1.497       .  S
C196        N197   1.372       .  A
C196        N201   1.360       .  A
N197        C198   1.370       .  A
C198        C484   1.481       .  S
C198        N199   1.351       .  A
N199        C200   1.349       .  A
C200        C547   1.472       .  S
C200        N201   1.355       .  A
C202       C1047   1.476       .  S
C202        N203   1.355       .  A
C202        N207   1.363       .  A
N203        C204   1.352       .  A
C204        C537   1.473       .  S
C204        N205   1.354       .  A
N205        C206   1.359       .  A
C206        C474   1.485       .  S
C206        N207   1.367       .  A
C208        C967   1.494       .  S
C208        N209   1.353       .  A
C208        N213   1.365       .  A
N209        C210   1.354       .  A
C210        C567   1.481       .  S
C210        N211   1.361       .  A
N211        C212   1.364       .  A
C212        C464   1.488       .  S
C212        N213   1.371       .  A
C214        C454   1.485       .  S
C214        C215   1.407       .  A
C214        C219   1.406       .  A
C215        C447   1.470       .  S
C215        C216   1.410   1_565  A
C216        C434   1.479       .  S
C216        C217   1.410   1_455  A
C217        C424   1.478       .  S
C217        C218   1.409   1_545  A
C218        C417   1.481       .  S
C218        C219   1.408   1_655  A
C219        C407   1.470       .  S
C220        C917   1.488       .  S
C220        N221   1.352       .  A
C220        N225   1.372   1_655  A
N221        C222   1.351   1_655  A
C222        C437   1.478       .  S
C222        N223   1.357       .  A
N223        C224   1.363       .  A
C224        C394   1.505       .  S
C224        N225   1.376       .  A
C226        C384   1.467       .  S
C226        N227   1.363   1_545  A
C226        N231   1.347       .  A
N227        C228   1.368       .  A
C228       C1007   1.486       .  S
C228        N229   1.365       .  A
N229        C230   1.354       .  A
C230        C444   1.461       .  S
C230        N231   1.343   1_565  A
C232       C1037   1.488       .  S
C232        N233   1.356       .  A
C232        N237   1.371       .  A
N233        C234   1.350       .  A
C234        C457   1.477       .  S
C234        N235   1.354       .  A
N235        C236   1.358       .  A
C236        C377   1.494       .  S
C236        N237   1.372       .  A
C238        C977   1.482       .  S
C238        N239   1.359       .  A
C238        N243   1.353       .  A
N239        C240   1.360       .  A
C240        C367   1.474       .  S
C240        N241   1.361       .  A
N241        C242   1.361       .  A
C242        C427   1.472       .  S
C242        N243   1.355       .  A
C244        C354   1.481       .  S
C244        N245   1.355       .  A
C244        N249   1.368       .  A
N245        C246   1.353       .  A
C246        C414   1.472       .  S
C246        N247   1.356   1_545  A
N247        C248   1.357       .  A
C248        C827   1.486       .  S
C248        N249   1.370   1_565  A
C250        C344   1.490       .  S
C250        N251   1.358       .  A
C250        N255   1.371   1_455  A
N251        C252   1.352   1_455  A
C252        C404   1.460   1_655  S
C252        N253   1.349       .  A
N253        C254   1.351       .  A
C254        C857   1.483       .  S
C254        N255   1.370       .  A
O256        C264   1.293       .  A
O256       Co276   1.998       .  S
O257        C265   1.271       .  A
O257       Co277   1.986       .  S
O258        C266   1.256       .  A
O258       Co278   1.995       .  S
O259        C267   1.264       .  A
O259       Co279   1.978       .  S
O260        C266   1.258       .  A
O260       Co277   2.006       .  S
O261        C267   1.275       .  A
O261       Co276   2.014       .  S
O262        C265   1.272       .  A
O262       Co279   2.007       .  S
O263        C264   1.285       .  A
O263       Co278   1.958       .  S
C264        C387   1.458       .  S
C265        C477   1.467       .  S
C266        C397   1.500       .  S
C267        C517   1.475       .  S
O268        C281   1.301       .  A
O268       Co276   2.091       .  S
O269        C282   1.263       .  A
O269       Co277   1.966       .  S
O270        C283   1.261       .  A
O270       Co278   1.992       .  S
O271        C284   1.266       .  A
O271       Co279   1.985       .  S
O272        C284   1.265       .  A
O272       Co277   1.981       .  S
O273        C283   1.273       .  A
O273       Co276   2.039       .  S
O274        C281   1.266       .  A
O274       Co279   1.956       .  S
O275        C282   1.277       .  A
O275       Co278   2.038       .  S
Co276       O280   2.047       .  S
Co277       O280   2.052       .  S
Co278       O280   2.035       .  S
Co279       O280   2.054       .  S
C281        C724   1.483       .  S
C282        C597   1.485       .  S
C283        C737   1.481       .  S
C284        C627   1.462       .  S
O285        C293   1.259       .  A
O285       Co305   1.961       .  S
O286        C294   1.266       .  A
O286       Co306   1.989       .  S
O287        C295   1.273       .  A
O287       Co307   1.999       .  S
O288        C296   1.277       .  A
O288       Co308   1.901       .  S
O289        C295   1.268       .  A
O289       Co306   1.986       .  S
O290        C296   1.303       .  A
O290       Co305   2.109       .  S
O291        C294   1.270       .  A
O291       Co308   2.008       .  S
O292        C293   1.271       .  A
O292       Co307   2.011       .  S
C293        C357   1.475       .  S
C294        C607   1.477       .  S
C295        C587   1.476       .  S
C296        C364   1.473       .  S
O297        C310   1.270       .  A
O297       Co305   1.979       .  S
O298        C311   1.272       .  A
O298       Co306   1.986       .  S
O299        C312   1.281       .  A
O299       Co307   1.896       .  S
O300        C313   1.302       .  A
O300       Co308   2.062       .  S
O301        C313   1.272       .  A
O301       Co306   1.990       .  S
O302        C312   1.310       .  A
O302       Co305   2.091       .  S
O303        C310   1.296       .  A
O303       Co308   2.080       .  S
O304        C311   1.269       .  A
O304       Co307   1.997       .  S
Co305       O309   2.070       .  S
Co306       O309   2.029       .  S
Co307       O309   1.944       .  S
Co308       O309   1.907       .  S
C310        C467   1.495       .  S
C311        C747   1.484       .  S
C312        C757   1.474       .  S
C313        C494   1.487       .  S
O314        C322   1.285       .  A
O314       Co334   2.018       .  S
O315        C323   1.270       .  A
O315       Co335   1.979       .  S
O316        C324   1.274       .  A
O316       Co336   1.997       .  S
O317        C325   1.279       .  A
O317       Co337   2.040       .  S
O318        C324   1.278       .  A
O318       Co335   2.000       .  S
O319        C325   1.274       .  A
O319       Co334   1.979       .  S
O320        C323   1.273       .  A
O320       Co337   2.006       .  S
O321        C322   1.278       .  A
O321       Co336   2.001       .  S
C322        C487   1.480       .  S
C323        C617   1.466       .  S
C324        C507   1.482       .  S
C325        C634   1.487       .  S
O326        C339   1.274       .  A
O326       Co334   2.013       .  S
O327        C340   1.277       .  A
O327       Co335   2.025       .  S
O328        C341   1.282       .  A
O328       Co336   2.009       .  S
O329        C342   1.273       .  A
O329       Co337   1.993       .  S
O330        C342   1.272       .  A
O330       Co335   2.007       .  S
O331        C341   1.274       .  A
O331       Co334   1.975       .  S
O332        C339   1.277       .  A
O332       Co337   2.003       .  S
O333        C340   1.276       .  A
O333       Co336   1.988       .  S
Co334       O338   1.974       .  S
Co335       O338   2.057       .  S
Co336       O338   1.983       .  S
Co337       O338   2.055       .  S
C339        C707   1.476       .  S
C340        C374   1.490       .  S
C341        C717   1.470       .  S
C342        C347   1.476       .  S
C343        C344   1.415       .  A
C343        C348   1.403       .  A
C343        H349   1.082       .  S
C344        C345   1.402       .  A
C345        C346   1.400       .  A
C345        H350   1.083       .  S
C346        C347   1.407       .  A
C346        H351   1.081       .  S
C347        C348   1.398       .  A
C348        H352   1.083       .  S
C353        C354   1.404       .  A
C353        C358   1.395       .  A
C353        H359   1.084       .  S
C354        C355   1.405       .  A
C355        C356   1.409       .  A
C355        H360   1.083       .  S
C356        C357   1.407       .  A
C356        H361   1.083       .  S
C357        C358   1.404       .  A
C358        H362   1.080       .  S
C363        C364   1.404       .  A
C363        C368   1.394       .  A
C363        H369   1.083       .  S
C364        C365   1.404       .  A
C365        C366   1.404       .  A
C365        H370   1.083       .  S
C366        C367   1.405       .  A
C366        H371   1.083       .  S
C367        C368   1.402       .  A
C368        H372   1.083       .  S
C373        C374   1.400       .  A
C373        C378   1.408       .  A
C373        H379   1.083       .  S
C374        C375   1.413       .  A
C375        C376   1.401       .  A
C375        H380   1.082       .  S
C376        C377   1.400       .  A
C376        H381   1.083       .  S
C377        C378   1.416       .  A
C378        H382   1.083       .  S
C383        C384   1.403       .  A
C383        C388   1.405       .  A
C383        H389   1.083       .  S
C384        C385   1.404       .  A
C385        C386   1.384       .  A
C385        H390   1.084       .  S
C386        C387   1.395       .  A
C386        H391   1.081       .  S
C387        C388   1.407       .  A
C388        H392   1.083       .  S
C393        C394   1.413       .  A
C393        C398   1.405       .  A
C393        H399   1.083       .  S
C394        C395   1.406       .  A
C395        C396   1.409       .  A
C395        H400   1.083       .  S
C396        C397   1.413       .  A
C396        H401   1.083       .  S
C397        C398   1.404       .  A
C398        H402   1.083       .  S
C403        C404   1.402       .  A
C403        C408   1.394       .  A
C403        H409   1.083       .  S
C404        C405   1.403   1_455  A
C405        C406   1.391       .  A
C405        H410   1.083       .  S
C406        C407   1.399   1_655  A
C406        H411   1.084       .  S
C407        C408   1.400       .  A
C408        H412   1.083       .  S
C413        C414   1.404   1_565  A
C413        C418   1.396       .  A
C413        H419   1.083       .  S
C414        C415   1.406       .  A
C415        C416   1.394       .  A
C415        H420   1.083       .  S
C416        C417   1.401   1_545  A
C416        H421   1.083       .  S
C417        C418   1.401       .  A
C418        H422   1.083       .  S
C423        C424   1.398       .  A
C423        C428   1.391       .  A
C423        H429   1.083       .  S
C424        C425   1.403       .  A
C425        C426   1.401       .  A
C425        H430   1.083       .  S
C426        C427   1.404       .  A
C426        H431   1.083       .  S
C427        C428   1.405       .  A
C428        H432   1.083       .  S
C433        C434   1.398   1_655  A
C433        C438   1.394       .  A
C433        H439   1.083       .  S
C434        C435   1.403       .  A
C435        C436   1.399       .  A
C435        H440   1.083       .  S
C436        C437   1.405       .  A
C436        H441   1.083       .  S
C437        C438   1.407   1_455  A
C438        H442   1.083       .  S
C443        C444   1.402       .  A
C443        C448   1.398       .  A
C443        H449   1.083       .  S
C444        C445   1.404       .  A
C445        C446   1.388   1_565  A
C445        H450   1.083   1_565  S
C446        C447   1.396   1_545  A
C446        H451   1.084       .  S
C447        C448   1.403       .  A
C448        H452   1.083       .  S
C453        C454   1.402       .  A
C453        C458   1.398       .  A
C453        H459   1.083       .  S
C454        C455   1.401       .  A
C455        C456   1.393       .  A
C455        H460   1.083       .  S
C456        C457   1.404       .  A
C456        H461   1.083       .  S
C457        C458   1.408       .  A
C458        H462   1.083       .  S
C463        C464   1.414       .  A
C463        C468   1.415       .  A
C463        H469   1.082       .  S
C464        C465   1.397       .  A
C465        C466   1.393       .  A
C465        H470   1.084       .  S
C466        C467   1.411       .  A
C466        H471   1.081       .  S
C467        C468   1.405       .  A
C468        H472   1.083       .  S
C473        C474   1.412       .  A
C473        C478   1.400       .  A
C473        H479   1.083       .  S
C474        C475   1.404       .  A
C475        C476   1.398       .  A
C475        H480   1.083       .  S
C476        C477   1.404       .  A
C476        H481   1.083       .  S
C477        C478   1.398       .  A
C478        H482   1.083       .  S
C483        C484   1.398       .  A
C483        C488   1.398       .  A
C483        H489   1.083       .  S
C484        C485   1.413       .  A
C485        C486   1.401       .  A
C485        H490   1.083       .  S
C486        C487   1.397       .  A
C486        H491   1.083       .  S
C487        C488   1.414       .  A
C488        H492   1.083       .  S
C493        C494   1.404       .  A
C493        C498   1.397       .  A
C493        H499   1.073       .  S
C494        C495   1.409       .  A
C495        C496   1.405       .  A
C495        H500   1.083       .  S
C496        C497   1.404       .  A
C496        H501   1.083       .  S
C497        C498   1.403       .  A
C498        H502   1.084       .  S
C503        C504   1.397       .  A
C503        C508   1.393       .  A
C503        H509   1.084       .  S
C504        C505   1.405       .  A
C505        C506   1.406       .  A
C505        H510   1.083       .  S
C506        C507   1.406       .  A
C506        H511   1.083       .  S
C507        C508   1.410       .  A
C508        H512   1.083       .  S
C513        C514   1.401       .  A
C513        C518   1.396       .  A
C513        H519   1.084       .  S
C514        C515   1.415       .  A
C515        C516   1.406       .  A
C515        H520   1.082       .  S
C516        C517   1.400       .  A
C516        H521   1.083       .  S
C517        C518   1.407       .  A
C518        H522   1.078       .  S
C523        C524   1.406       .  A
C523        C528   1.404       .  A
C523        H529   1.083       .  S
C524        C525   1.400       .  A
C525        C526   1.396       .  A
C525        H530   1.083       .  S
C526        C527   1.406       .  A
C526        H531   1.083       .  S
C527        C528   1.404       .  A
C528        H532   1.083       .  S
C533        C534   1.401       .  A
C533        C538   1.397       .  A
C533        H539   1.082       .  S
C534        C535   1.401       .  A
C535        C536   1.393       .  A
C535        H540   1.083       .  S
C536        C537   1.404       .  A
C536        H541   1.083       .  S
C537        C538   1.405       .  A
C538        H542   1.083       .  S
C543        C544   1.401       .  A
C543        C548   1.396       .  A
C543        H549   1.082       .  S
C544        C545   1.398       .  A
C545        C546   1.394       .  A
C545        H550   1.084       .  S
C546        C547   1.407       .  A
C546        H551   1.083       .  S
C547        C548   1.403       .  A
C548        H552   1.083       .  S
C553        C554   1.400       .  A
C553        C558   1.393       .  A
C553        H559   1.083       .  S
C554        C555   1.403       .  A
C555        C556   1.399       .  A
C555        H560   1.083       .  S
C556        C557   1.403       .  A
C556        H561   1.083       .  S
C557        C558   1.403       .  A
C558        H562   1.083       .  S
C563        C564   1.398       .  A
C563        C568   1.391       .  A
C563        H569   1.083       .  S
C564        C565   1.405       .  A
C565        C566   1.404       .  A
C565        H570   1.083       .  S
C566        C567   1.406       .  A
C566        H571   1.083       .  S
C567        C568   1.407       .  A
C568        H572   1.083       .  S
C573        C574   1.401       .  A
C573        C578   1.398       .  A
C573        H579   1.083       .  S
C574        C575   1.399       .  A
C575        C576   1.391       .  A
C575        H580   1.083       .  S
C576        C577   1.404       .  A
C576        H581   1.083       .  S
C577        C578   1.406       .  A
C578        H582   1.083       .  S
C583        C584   1.408       .  A
C583        C588   1.405       .  A
C583        H589   1.083       .  S
C584        C585   1.410       .  A
C585        C586   1.402       .  A
C585        H590   1.083       .  S
C586        C587   1.402       .  A
C586        H591   1.083       .  S
C587        C588   1.407       .  A
C588        H592   1.083       .  S
C593        C594   1.410       .  A
C593        C598   1.410       .  A
C593        H599   1.083       .  S
C594        C595   1.408       .  A
C595        C596   1.395       .  A
C595        H600   1.083       .  S
C596        C597   1.403       .  A
C596        H601   1.084       .  S
C597        C598   1.407       .  A
C598        H602   1.081       .  S
C603        C604   1.413       .  A
C603        C608   1.394       .  A
C603        H609   1.082       .  S
C604        C605   1.407       .  A
C605        C606   1.410       .  A
C605        H610   1.083       .  S
C606        C607   1.409       .  A
C606        H611   1.080       .  S
C607        C608   1.396       .  A
C608        H612   1.084       .  S
C613        C614   1.411       .  A
C613        C618   1.395       .  A
C613        H619   1.083       .  S
C614        C615   1.405       .  A
C615        C616   1.402       .  A
C615        H620   1.083       .  S
C616        C617   1.406       .  A
C616        H621   1.083       .  S
C617        C618   1.394       .  A
C618        H622   1.079       .  S
C623        C624   1.410       .  A
C623        C628   1.397       .  A
C623        H629   1.083       .  S
C624        C625   1.403       .  A
C625        C626   1.400       .  A
C625        H630   1.083       .  S
C626        C627   1.406       .  A
C626        H631   1.084       .  S
C627        C628   1.399       .  A
C628        H632   1.084       .  S
C633        C634   1.413       .  A
C633        C638   1.413       .  A
C633        H639   1.082       .  S
C634        C635   1.395       .  A
C635        C636   1.399       .  A
C635        H640   1.079       .  S
C636        C637   1.414       .  A
C636        H641   1.082       .  S
C637        C638   1.408       .  A
C638        H642   1.083       .  S
C643        C644   1.398       .  A
C643        C648   1.388       .  A
C643        H649   1.083       .  S
C644        C645   1.398       .  A
C645        C646   1.396       .  A
C645        H650   1.083       .  S
C646        C647   1.406       .  A
C646        H651   1.083       .  S
C647        C648   1.402       .  A
C648        H652   1.083       .  S
C653        C654   1.404       .  A
C653        C658   1.402       .  A
C653        H659   1.083       .  S
C654        C655   1.401   1_556  A
C655        C656   1.397       .  A
C655        H660   1.083       .  S
C656        C657   1.409   1_554  A
C656        H661   1.083       .  S
C657        C658   1.407       .  A
C658        H662   1.083       .  S
C663        C664   1.401   1_455  A
C663        C668   1.391       .  A
C663        H669   1.084       .  S
C664        C665   1.399       .  A
C665        C666   1.395       .  A
C665        H670   1.083       .  S
C666        C667   1.404       .  A
C666        H671   1.083       .  S
C667        C668   1.402   1_655  A
C668        H672   1.083       .  S
C673        C674   1.399       .  A
C673        C678   1.392       .  A
C673        H679   1.082       .  S
C674        C675   1.401       .  A
C675        C676   1.397       .  A
C675        H680   1.083       .  S
C676        C677   1.405       .  A
C676        H681   1.082       .  S
C677        C678   1.407       .  A
C678        H682   1.083       .  S
C683        C684   1.402   1_554  A
C683        C688   1.397       .  A
C683        H689   1.083       .  S
C684        C685   1.400       .  A
C685        C686   1.398       .  A
C685        H690   1.083       .  S
C686        C687   1.407       .  A
C686        H691   1.083       .  S
C687        C688   1.404   1_556  A
C688        H692   1.083       .  S
C693        C694   1.401   1_455  A
C693        C698   1.396       .  A
C693        H699   1.083       .  S
C694        C695   1.400       .  A
C695        C696   1.396       .  A
C695        H700   1.083       .  S
C696        C697   1.406       .  A
C696        H701   1.083       .  S
C697        C698   1.405   1_655  A
C698        H702   1.083       .  S
C703        C704   1.412       .  A
C703        C708   1.402       .  A
C703        H709   1.084       .  S
C704        C705   1.404       .  A
C705        C706   1.403       .  A
C705        H710   1.083       .  S
C706        C707   1.405       .  A
C706        H711   1.083       .  S
C707        C708   1.400       .  A
C708        H712   1.080       .  S
C713        C714   1.392       .  A
C713        C718   1.384       .  A
C713        H719   1.083       .  S
C714        C715   1.409       .  A
C715        C716   1.401       .  A
C715        H720   1.084       .  S
C716        C717   1.399       .  A
C716        H721   1.082       .  S
C717        C718   1.412       .  A
C718        H722   1.084       .  S
C723        C724   1.405       .  A
C723        C728   1.399       .  A
C723        H729   1.083       .  S
C724        C725   1.409       .  A
C725        C726   1.399       .  A
C725        H730   1.083       .  S
C726        C727   1.400       .  A
C726        H731   1.083       .  S
C727        C728   1.403       .  A
C728        H732   1.084       .  S
C733        C734   1.404       .  A
C733        C738   1.409       .  A
C733        H739   1.083       .  S
C734        C735   1.415       .  A
C735        C736   1.403       .  A
C735        H740   1.083       .  S
C736        C737   1.399       .  A
C736        H741   1.083       .  S
C737        C738   1.410       .  A
C738        H742   1.083       .  S
C743        C744   1.407       .  A
C743        C748   1.412       .  A
C743        H749   1.083       .  S
C744        C745   1.413       .  A
C745        C746   1.399       .  A
C745        H750   1.083       .  S
C746        C747   1.399       .  A
C746        H751   1.083       .  S
C747        C748   1.412       .  A
C748        H752   1.084       .  S
C753        C754   1.403       .  A
C753        C758   1.400       .  A
C753        H759   1.083       .  S
C754        C755   1.412       .  A
C755        C756   1.400       .  A
C755        H760   1.083       .  S
C756        C757   1.398       .  A
C756        H761   1.083       .  S
C757        C758   1.407       .  A
C758        H762   1.082       .  S
C763        C764   1.401       .  A
C763        C768   1.398       .  A
C763        H769   1.083       .  S
C764        C765   1.399   1_545  A
C765        C766   1.395       .  A
C765        H770   1.083       .  S
C766        C767   1.405   1_565  A
C766        H771   1.083       .  S
C767        C768   1.405       .  A
C768        H772   1.083       .  S
C773        C774   1.400   1_554  A
C773        C778   1.396       .  A
C773        H779   1.083       .  S
C774        C775   1.401       .  A
C775        C776   1.396       .  A
C775        H780   1.083       .  S
C776        C777   1.406   1_556  A
C776        H781   1.083       .  S
C777        C778   1.406       .  A
C778        H782   1.083       .  S
C783        C784   1.401   1_554  A
C783        C788   1.396       .  A
C783        H789   1.083       .  S
C784        C785   1.400       .  A
C785        C786   1.395       .  A
C785        H790   1.083       .  S
C786        C787   1.404       .  A
C786        H791   1.083       .  S
C787        C788   1.403   1_556  A
C788        H792   1.083       .  S
C793        C794   1.403       .  A
C793        C798   1.394       .  A
C793        H799   1.083       .  S
C794        C795   1.407       .  A
C795        C796   1.393       .  A
C795        H800   1.083       .  S
C796        C797   1.398       .  A
C796        H801   1.083       .  S
C797        C798   1.402       .  A
C798        H802   1.083       .  S
C803        C804   1.400       .  A
C803        C808   1.393       .  A
C803        H809   1.083       .  S
C804        C805   1.399       .  A
C805        C806   1.389       .  A
C805        H810   1.083       .  S
C806        C807   1.400       .  A
C806        H811   1.083       .  S
C807        C808   1.402       .  A
C808        H812   1.084       .  S
C813        C814   1.400       .  A
C813        C818   1.391       .  A
C813        H819   1.082       .  S
C814        C815   1.402   1_565  A
C815        C816   1.398       .  A
C815        H820   1.083       .  S
C816        C817   1.407   1_545  A
C816        H821   1.083       .  S
C817        C818   1.404       .  A
C818        H822   1.083       .  S
C823        C824   1.413       .  A
C823        C828   1.400       .  A
C823        H829   1.072       .  S
C824        C825   1.404       .  A
C825        C826   1.409       .  A
C825        H830   1.083       .  S
C826        C827   1.412       .  A
C826        H831   1.082       .  S
C827        C828   1.398       .  A
C828        H832   1.085       .  S
C833        C834   1.399       .  A
C833        C838   1.401       .  A
C833        H839   1.082       .  S
C834        C835   1.407       .  A
C835        C836   1.405       .  A
C835        H840   1.076       .  S
C836        C837   1.403       .  A
C836        H841   1.084       .  S
C837        C838   1.411       .  A
C838        H842   1.082       .  S
C843        C844   1.403       .  A
C843        C848   1.402       .  A
C843        H849   1.083       .  S
C844        C845   1.411       .  A
C845        C846   1.394       .  A
C845        H850   1.081       .  S
C846        C847   1.397       .  A
C846        H851   1.083       .  S
C847        C848   1.409       .  A
C848        H852   1.083       .  S
C853        C854   1.408       .  A
C853        C858   1.400       .  A
C853        H859   1.080       .  S
C854        C855   1.398       .  A
C855        C856   1.400       .  A
C855        H860   1.082       .  S
C856        C857   1.412       .  A
C856        H861   1.083       .  S
C857        C858   1.399       .  A
C858        H862   1.083       .  S
C863        C864   1.411       .  A
C863        C868   1.411       .  A
C863        H869   1.082       .  S
C864        C865   1.402       .  A
C865        C866   1.392       .  A
C865        H870   1.084       .  S
C866        C867   1.404       .  A
C866        H871   1.083       .  S
C867        C868   1.406       .  A
C868        H872   1.083       .  S
C873        C874   1.409       .  A
C873        C878   1.398       .  A
C873        H879   1.082       .  S
C874        C875   1.399       .  A
C875        C876   1.408       .  A
C875        H880   1.083       .  S
C876        C877   1.418       .  A
C876        H881   1.083       .  S
C877        C878   1.401       .  A
C878        H882   1.083       .  S
C883        C884   1.402       .  A
C883        C888   1.387       .  A
C883        H889   1.083       .  S
C884        C885   1.407       .  A
C885        C886   1.406       .  A
C885        H890   1.083       .  S
C886        C887   1.404       .  A
C886        H891   1.083       .  S
C887        C888   1.399       .  A
C888        H892   1.084       .  S
C893        C894   1.400       .  A
C893        C898   1.402       .  A
C893        H899   1.083       .  S
C894        C895   1.410       .  A
C895        C896   1.406       .  A
C895        H900   1.084       .  S
C896        C897   1.406       .  A
C896        H901   1.083       .  S
C897        C898   1.413       .  A
C898        H902   1.082       .  S
C903        C904   1.398       .  A
C903        C908   1.404       .  A
C903        H909   1.073       .  S
C904        C905   1.408       .  A
C905        C906   1.396       .  A
C905        H910   1.083       .  S
C906        C907   1.401       .  A
C906        H911   1.082       .  S
C907        C908   1.415       .  A
C908        H912   1.084       .  S
C913        C914   1.403       .  A
C913        C918   1.400       .  A
C913        H919   1.083       .  S
C914        C915   1.410       .  A
C915        C916   1.412       .  A
C915        H920   1.083       .  S
C916        C917   1.406       .  A
C916        H921   1.083       .  S
C917        C918   1.407       .  A
C918        H922   1.083       .  S
C923        C924   1.400       .  A
C923        C928   1.397       .  A
C923        H929   1.080       .  S
C924        C925   1.411       .  A
C925        C926   1.412       .  A
C925        H930   1.083       .  S
C926        C927   1.406       .  A
C926        H931   1.083       .  S
C927        C928   1.409       .  A
C928        H932   1.084       .  S
C933        C934   1.407       .  A
C933        C938   1.395       .  A
C933        H939   1.084       .  S
C934        C935   1.399       .  A
C935        C936   1.405       .  A
C935        H940   1.073       .  S
C936        C937   1.414       .  A
C936        H941   1.085       .  S
C937        C938   1.402       .  A
C938        H942   1.081       .  S
C943        C944   1.403       .  A
C943        C948   1.396       .  A
C943        H949   1.083       .  S
C944        C945   1.399       .  A
C945        C946   1.404       .  A
C945        H950   1.083       .  S
C946        C947   1.413       .  A
C946        H951   1.083       .  S
C947        C948   1.404       .  A
C948        H952   1.083       .  S
C953        C954   1.406       .  A
C953        C958   1.407       .  A
C953        H959   1.084       .  S
C954        C955   1.400       .  A
C955        C956   1.396       .  A
C955        H960   1.082       .  S
C956        C957   1.410       .  A
C956        H961   1.083       .  S
C957        C958   1.408       .  A
C958        H962   1.082       .  S
C963        C964   1.408       .  A
C963        C968   1.409       .  A
C963        H969   1.083       .  S
C964        C965   1.401       .  A
C965        C966   1.397       .  A
C965        H970   1.083       .  S
C966        C967   1.410       .  A
C966        H971   1.083       .  S
C967        C968   1.408       .  A
C968        H972   1.083       .  S
C973        C974   1.398       .  A
C973        C978   1.400       .  A
C973        H979   1.083       .  S
C974        C975   1.402       .  A
C975        C976   1.394       .  A
C975        H980   1.084       .  S
C976        C977   1.404       .  A
C976        H981   1.083       .  S
C977        C978   1.412       .  A
C978        H982   1.083       .  S
C983        C984   1.411       .  A
C983        C988   1.406       .  A
C983        H989   1.082       .  S
C984        C985   1.401       .  A
C985        C986   1.399       .  A
C985        H990   1.083       .  S
C986        C987   1.411       .  A
C986        H991   1.083       .  S
C987        C988   1.406       .  A
C988        H992   1.083       .  S
C993        C994   1.405       .  A
C993        C998   1.401       .  A
C993        H999   1.083       .  S
C994        C995   1.412       .  A
C995        C996   1.410       .  A
C995       H1000   1.083       .  S
C996        C997   1.407       .  A
C996       H1001   1.083       .  S
C997        C998   1.410       .  A
C998       H1002   1.083       .  S
C1003      C1004   1.406       .  A
C1003      C1008   1.404       .  A
C1003      H1009   1.083       .  S
C1004      C1005   1.405       .  A
C1005      C1006   1.392       .  A
C1005      H1010   1.084       .  S
C1006      C1007   1.405       .  A
C1006      H1011   1.083       .  S
C1007      C1008   1.408       .  A
C1008      H1012   1.083       .  S
C1013      C1014   1.406       .  A
C1013      C1018   1.413       .  A
C1013      H1019   1.083       .  S
C1014      C1015   1.414       .  A
C1015      C1016   1.400       .  A
C1015      H1020   1.083       .  S
C1016      C1017   1.403       .  A
C1016      H1021   1.083       .  S
C1017      C1018   1.414       .  A
C1018      H1022   1.082       .  S
C1023      C1024   1.405       .  A
C1023      C1028   1.411       .  A
C1023      H1029   1.082       .  S
C1024      C1025   1.407       .  A
C1025      C1026   1.403       .  A
C1025      H1030   1.081       .  S
C1026      C1027   1.407       .  A
C1026      H1031   1.083       .  S
C1027      C1028   1.414       .  A
C1028      H1032   1.082       .  S
C1033      C1034   1.411       .  A
C1033      C1038   1.406       .  A
C1033      H1039   1.083       .  S
C1034      C1035   1.399       .  A
C1035      C1036   1.394       .  A
C1035      H1040   1.083       .  S
C1036      C1037   1.410       .  A
C1036      H1041   1.083       .  S
C1037      C1038   1.405       .  A
C1038      H1042   1.083       .  S
C1043      C1044   1.404       .  A
C1043      C1048   1.410       .  A
C1043      H1049   1.083       .  S
C1044      C1045   1.409       .  A
C1045      C1046   1.387       .  A
C1045      H1050   1.076       .  S
C1046      C1047   1.399       .  A
C1046      H1051   1.085       .  S
C1047      C1048   1.407       .  A
C1048      H1052   1.081       .  S
C1053      C1054   1.406       .  A
C1053      C1058   1.394       .  A
C1053      H1059   1.080       .  S
C1054      C1055   1.397       .  A
C1055      C1056   1.401       .  A
C1055      H1060   1.083       .  S
C1056      C1057   1.412       .  A
C1056      H1061   1.082       .  S
C1057      C1058   1.400       .  A
C1058      H1062   1.084       .  S
