geometry optimzed in LAMMPS
_audit_creation_date              2020-11-30 
_audit_creation_method            'lammps2cif' 
_symmetry_space_group_name_H-M    'P1' 
_symmetry_Int_Tables_number       1 
_symmetry_cell_setting            triclinic 
loop_ 
_symmetry_equiv_pos_as_xyz 
  x,y,z 
_cell_length_a                    53.71268175 
_cell_length_b                    53.5120202240937 
_cell_length_c                    101.71240069188312 
_cell_angle_alpha                 90.12587249210071 
_cell_angle_beta                  89.92815834064932 
_cell_angle_gamma                 90.06813239410164 
loop_ 
_atom_site_label 
_atom_site_type_symbol 
_atom_site_fract_x 
_atom_site_fract_y 
_atom_site_fract_z 
_atom_site_charge 
N1          N  0.68047674  0.36253019  0.32920820    -0.27300
N2          N  0.68814493  0.36891919  0.31733349    -0.35200
C3          C  0.67673247  0.35447427  0.30836626     0.01000
C4          C  0.66099888  0.33807409  0.31485099     0.07100
C5          C  0.66398072  0.34369702  0.32809148    -0.06000
H6          H  0.67927976  0.35638406  0.29786974     0.07700
H7          H  0.65407431  0.33555289  0.33629657     0.08900
Cu8        Cu  0.71085700  0.39915989  0.31342559     0.44200
Cu9        Cu  0.69066899  0.38169115  0.34618566     0.42000
Cu10       Cu  0.71893483  0.44253829  0.33984473     0.43900
N11         N  0.72521614  0.43458334  0.31079544    -0.34700
N12         N  0.72715811  0.45111353  0.32040663    -0.28900
C13         C  0.73279840  0.47353827  0.31521198    -0.05000
C14         C  0.73453461  0.47085893  0.30169207     0.07200
C15         C  0.72977142  0.44589267  0.29926255     0.01000
H16         H  0.73410997  0.49073303  0.32078357     0.08600
H17         H  0.72764967  0.43703879  0.28975661     0.07700
N18         N  0.70966358  0.42941542  0.35843329    -0.36100
N19         N  0.70024651  0.40703910  0.36087225    -0.28300
C20         C  0.69676347  0.40466786  0.37393653    -0.03600
C21         C  0.70397620  0.42676648  0.37995479     0.05000
C22         C  0.71206355  0.44195869  0.36981768     0.03100
H23         H  0.68882881  0.38838676  0.37864487     0.08200
H24         H  0.71927901  0.46078044  0.37064891     0.07100
N25         N  0.68976328  0.59844176  0.25976487    -0.27300
N26         N  0.69574903  0.59310226  0.27203543    -0.35200
C27         C  0.68394853  0.60895021  0.28014307     0.01000
C28         C  0.66964321  0.62515879  0.27269248     0.07100
C29         C  0.67396454  0.61798992  0.25976250    -0.06000
H30         H  0.68516984  0.60803406  0.29073815     0.07700
H31         H  0.66535357  0.62555787  0.25103059     0.08900
Cu32       Cu  0.71652992  0.56243340  0.27774676     0.44200
Cu33       Cu  0.70163223  0.57712163  0.24387583     0.42000
Cu34       Cu  0.73067010  0.51777171  0.25273025     0.43900
N35         N  0.72958994  0.52693948  0.28185983    -0.34700
N36         N  0.73381989  0.51008988  0.27261522    -0.28900
C37         C  0.73780690  0.48780567  0.27831048    -0.05000
C38         C  0.73604020  0.49081658  0.29179836     0.07200
C39         C  0.73098498  0.51590338  0.29370539     0.01000
H40         H  0.74027501  0.47045418  0.27299043     0.08600
H41         H  0.72649545  0.52500152  0.30291544     0.07700
N42         N  0.72626379  0.53022317  0.23359475    -0.36100
N43         N  0.71563586  0.55161398  0.23035099    -0.28300
C44         C  0.71592996  0.55389439  0.21718645    -0.03600
C45         C  0.72742170  0.53299767  0.21187222     0.05000
C46         C  0.73370590  0.51841621  0.22259948     0.03100
H47         H  0.70865333  0.56982547  0.21191940     0.08200
H48         H  0.74283967  0.50041435  0.22246987     0.07100
N49         N  0.51999363  0.78314186  0.30908896    -0.27300
N50         N  0.51332995  0.76630311  0.31788238    -0.35200
C51         C  0.52719455  0.74572065  0.31625844     0.01000
C52         C  0.54351235  0.74961443  0.30589949     0.07100
C53         C  0.53831570  0.77360531  0.30152599    -0.06000
H54         H  0.52535163  0.72910407  0.32221306     0.07700
H55         H  0.54752087  0.78361397  0.29366951     0.08900
Cu56       Cu  0.48582201  0.77177194  0.33182466     0.44200
Cu57       Cu  0.50379956  0.81823565  0.30862740     0.42000
Cu58       Cu  0.44964924  0.82771046  0.33090247     0.43900
N59         N  0.45747581  0.77928901  0.34501642    -0.34700
N60         N  0.44338226  0.79947822  0.34454941    -0.28900
C61         C  0.42736344  0.79905029  0.35476696    -0.05000
C62         C  0.43189423  0.77765911  0.36206981     0.07200
C63         C  0.45108408  0.76562826  0.35554824     0.01000
H64         H  0.41438413  0.81385279  0.35711204     0.08600
H65         H  0.46016055  0.74843637  0.35839424     0.07700
N66         N  0.46440117  0.85458047  0.31832952    -0.36100
N67         N  0.48440244  0.85143258  0.31087556    -0.28300
C68         C  0.49011796  0.87321371  0.30505063    -0.03600
C69         C  0.47274529  0.89079505  0.30885233     0.05000
C70         C  0.45664936  0.87837982  0.31721156     0.03100
H71         H  0.50572432  0.87599026  0.29847565     0.08200
H72         H  0.44097500  0.88627349  0.32245699     0.07100
N73         N  0.51959576  0.17778607  0.27342162    -0.27300
N74         N  0.51401326  0.19302037  0.26365638    -0.35200
C75         C  0.52687003  0.21439596  0.26511772     0.01000
C76         C  0.54121215  0.21263791  0.27639659     0.07100
C77         C  0.53604251  0.18912535  0.28140995    -0.06000
H78         H  0.52565061  0.23008758  0.25846847     0.07700
H79         H  0.54392794  0.18061921  0.29009263     0.08900
Cu80       Cu  0.48925119  0.18429325  0.24873250     0.44200
Cu81       Cu  0.50489877  0.14220067  0.27537341     0.42000
Cu82       Cu  0.45853827  0.12487218  0.25100919     0.43900
N83         N  0.46460451  0.17106034  0.23469261    -0.34700
N84         N  0.45375156  0.14893252  0.23536858    -0.28900
C85         C  0.44017261  0.14518343  0.22443746    -0.05000
C86         C  0.44232698  0.16616274  0.21659117     0.07200
C87         C  0.45791536  0.18219829  0.22341277     0.01000
H88         H  0.42953031  0.12845147  0.22237888     0.08600
H89         H  0.46454094  0.20030563  0.22023104     0.07700
N90         N  0.46885289  0.10245663  0.26657261    -0.36100
N91         N  0.48642921  0.10822217  0.27514563    -0.28300
C92         C  0.49022495  0.08855924  0.28310166    -0.03600
C93         C  0.47406913  0.06962340  0.27940960     0.05000
C94         C  0.46075008  0.07916169  0.26894065     0.03100
H95         H  0.50395452  0.08802018  0.29086834     0.08200
H96         H  0.44705803  0.06946974  0.26302778     0.07100
N97         N  0.30018935  0.68458568  0.49704442    -0.27300
N98         N  0.30744628  0.68603996  0.50943008    -0.35200
C99         C  0.29290067  0.67140256  0.51685078     0.01000
C100        C  0.27543256  0.65985162  0.50885825     0.07100
C101        C  0.28062489  0.66881964  0.49631106    -0.06000
H102        H  0.29573448  0.66882763  0.52727129     0.07700
H103        H  0.27150771  0.66366232  0.48723022     0.08900
Cu104      Cu  0.33851974  0.70478300  0.51617632     0.44200
Cu105      Cu  0.31922623  0.70212410  0.48171843     0.42000
Cu106      Cu  0.38045260  0.72596274  0.49220760     0.43900
N107        N  0.37306046  0.71894681  0.52101437    -0.34700
N108        N  0.38921606  0.72622445  0.51201728    -0.28900
C109        C  0.41060861  0.73285511  0.51796714    -0.05000
C110        C  0.40758622  0.72965975  0.53137639     0.07200
C111        C  0.38355086  0.72085654  0.53295596     0.01000
H112        H  0.42712278  0.73931856  0.51290606     0.08600
H113        H  0.37457443  0.71552517  0.54205683     0.07700
N114        N  0.36773596  0.72554231  0.47299316    -0.36100
N115        N  0.34550159  0.71790786  0.46906419    -0.28300
C116        C  0.34398605  0.72071087  0.45590597    -0.03600
C117        C  0.36647249  0.73020266  0.45139824     0.05000
C118        C  0.38095467  0.73302425  0.46252022     0.03100
H119        H  0.32804100  0.71545657  0.45002460     0.08200
H120        H  0.39981148  0.74009217  0.46300658     0.07100
N121        N  0.53912157  0.72751126  0.57784999    -0.27300
N122        N  0.53404029  0.73072057  0.56524671    -0.35200
C123        C  0.55377969  0.72354716  0.55807075     0.01000
C124        C  0.57218284  0.71505304  0.56647776     0.07100
C125        C  0.56221149  0.71796595  0.57897813    -0.06000
H126        H  0.55377357  0.72244481  0.54745067     0.07700
H127        H  0.57049653  0.71228431  0.58818337     0.08900
Cu128      Cu  0.49902004  0.73879318  0.55776657     0.44200
Cu129      Cu  0.51328669  0.73276179  0.59283070     0.42000
Cu130      Cu  0.44979979  0.73619273  0.58140475     0.43900
N131        N  0.46167011  0.73788708  0.55255762    -0.34700
N132        N  0.44369803  0.73596842  0.56137838    -0.28900
C133        C  0.42179201  0.73326686  0.55519027    -0.05000
C134        C  0.42612625  0.73358921  0.54180348     0.07200
C135        C  0.45161093  0.73662396  0.54044979     0.01000
H136        H  0.40408505  0.73081733  0.56010418     0.08600
H137        H  0.46215746  0.73684604  0.53138194     0.07700
N138        N  0.45972072  0.73852453  0.60096461    -0.36100
N139        N  0.48289550  0.73751898  0.60524287    -0.28300
C140        C  0.48288416  0.74062958  0.61837159    -0.03600
C141        C  0.45845492  0.74378630  0.62257756     0.05000
C142        C  0.44435458  0.74228843  0.61119277     0.03100
H143        H  0.49953261  0.74077314  0.62433206     0.08200
H144        H  0.42442547  0.74440365  0.61025219     0.07100
N145        N  0.72528476  0.56169379  0.53130822    -0.27300
N146        N  0.71317829  0.56358938  0.52003797    -0.35200
C147        C  0.69671494  0.58241061  0.52093603     0.01000
C148        C  0.69831272  0.59275453  0.53340020     0.07100
C149        C  0.71657409  0.57907288  0.53973246    -0.06000
H150        H  0.68404081  0.58773751  0.51317598     0.07700
H151        H  0.72329685  0.58175594  0.54965828     0.08900
Cu152      Cu  0.71808926  0.53960742  0.50412620     0.44200
Cu153      Cu  0.75391996  0.53636633  0.53444441     0.42000
Cu154      Cu  0.76319329  0.49079916  0.50850642     0.43900
N155        N  0.72351601  0.51091395  0.49059999    -0.34700
N156        N  0.73944851  0.49249190  0.49250371    -0.28900
C157        C  0.73856197  0.47678360  0.48218101    -0.05000
C158        C  0.72129176  0.48575150  0.47324415     0.07200
C159        C  0.71215280  0.50749541  0.47894460     0.01000
H160        H  0.75034431  0.46053547  0.48107733     0.08600
H161        H  0.69831201  0.51999833  0.47493611     0.07700
N162        N  0.78795575  0.49635759  0.52383657    -0.36100
N163        N  0.78447788  0.51270539  0.53342373    -0.28300
C164        C  0.80511651  0.51366301  0.54089046    -0.03600
C165        C  0.82256728  0.49737071  0.53565326     0.05000
C166        C  0.81094123  0.48666027  0.52487498     0.03100
H167        H  0.80787904  0.52666446  0.54891849     0.08200
H168        H  0.81897046  0.47367141  0.51790087     0.07100
N169        N  0.11927952  0.51048168  0.54702495    -0.27300
N170        N  0.13678582  0.50371301  0.55541237    -0.35200
C171        C  0.15828519  0.51480817  0.55210289     0.01000
C172        C  0.15428704  0.52941576  0.54110574     0.07100
C173        C  0.12934764  0.52603349  0.53805988    -0.06000
H174        H  0.17521027  0.51350789  0.55781256     0.07700
H175        H  0.11885566  0.53575052  0.53057884     0.08900
Cu176      Cu  0.13054591  0.48414297  0.57259300     0.44200
Cu177      Cu  0.08188471  0.50178491  0.54976110     0.42000
Cu178      Cu  0.06744853  0.47758295  0.58266226     0.43900
N179        N  0.12060483  0.47210997  0.59116060    -0.34700
N180        N  0.09723337  0.47051013  0.59510756    -0.28900
C181        C  0.09684646  0.46463854  0.60796792    -0.05000
C182        C  0.12122129  0.46231438  0.61229836     0.07200
C183        C  0.13574774  0.46713296  0.60133072     0.01000
H184        H  0.08006236  0.46246189  0.61374342     0.08600
H185        H  0.15585177  0.46805654  0.60088775     0.07700
N186        N  0.04101931  0.48548440  0.56837017    -0.36100
N187        N  0.04612375  0.49370543  0.55640512    -0.28300
C188        C  0.02464449  0.49668717  0.54978294    -0.03600
C189        C  0.00507324  0.49021521  0.55800110     0.05000
C190        C  0.01622156  0.48321713  0.56969144     0.03100
H191        H  0.02338207  0.50362830  0.53982513     0.08200
H192        H  0.00703386  0.47676854  0.57852673     0.07100
N193        N  0.23922652  0.38568032  0.75279855    -0.27300
N194        N  0.23549455  0.39258215  0.76513565    -0.35200
C195        C  0.24980845  0.37872043  0.77309243     0.01000
C196        C  0.26312900  0.36198693  0.76548422     0.07100
C197        C  0.25590623  0.36686069  0.75263912    -0.06000
H198        H  0.24996957  0.38031083  0.78369784     0.07700
H199        H  0.26235851  0.35750538  0.74383523     0.08900
Cu200      Cu  0.21045615  0.41959826  0.77104423     0.44200
Cu201      Cu  0.22091798  0.40228868  0.73692984     0.42000
Cu202      Cu  0.17538527  0.45025230  0.74621802     0.43900
N203        N  0.18520535  0.44758772  0.77511730    -0.34700
N204        N  0.17256376  0.45943857  0.76592093    -0.28900
C205        C  0.15926669  0.47788632  0.77154328    -0.05000
C206        C  0.16367980  0.47737549  0.78493827     0.07200
C207        C  0.18014325  0.45790966  0.78686186     0.01000
H208        H  0.14776795  0.49102463  0.76623799     0.08600
H209        H  0.18871605  0.45236114  0.79601939     0.07700
N210        N  0.18163456  0.43831161  0.72713978    -0.36100
N211        N  0.19827247  0.42138279  0.72359696    -0.28300
C212        C  0.19722629  0.41847818  0.71044219    -0.03600
C213        C  0.17892433  0.43421423  0.70548403     0.05000
C214        C  0.16955095  0.44646461  0.71643168     0.03100
H215        H  0.20868912  0.40552075  0.70496012     0.08200
H216        H  0.15509166  0.46049465  0.71668862     0.07100
N217        N  0.15178906  0.61426032  0.82365246    -0.27300
N218        N  0.14669698  0.60565612  0.81177263    -0.35200
C219        C  0.15255840  0.62313733  0.80284467     0.01000
C220        C  0.16208235  0.64388449  0.80931890     0.07100
C221        C  0.16106330  0.63753699  0.82256066    -0.06000
H222        H  0.15210803  0.61984983  0.79235907     0.07700
H223        H  0.16825762  0.64815163  0.83077423     0.08900
Cu224      Cu  0.13894687  0.56868971  0.80752380     0.44200
Cu225      Cu  0.15097335  0.59224269  0.84048130     0.42000
Cu226      Cu  0.15598299  0.52628860  0.83319075     0.43900
N227        N  0.14463905  0.53098490  0.80436813    -0.34700
N228        N  0.15202517  0.51564994  0.81374566    -0.28900
C229        C  0.15857699  0.49371149  0.80832427    -0.05000
C230        C  0.15518114  0.49536247  0.79488636     0.07200
C231        C  0.14616655  0.51918057  0.79270990     0.01000
H232        H  0.16657082  0.47825360  0.81369448     0.08600
H233        H  0.14299649  0.52798115  0.78329409     0.07700
N234        N  0.15697240  0.54086193  0.85203466    -0.36100
N235        N  0.15403122  0.56480866  0.85484737    -0.28300
C236        C  0.15375702  0.56763610  0.86801027    -0.03600
C237        C  0.15697866  0.54435287  0.87371071     0.05000
C238        C  0.15901869  0.52788446  0.86326494     0.03100
H239        H  0.15142474  0.58531455  0.87303954     0.08200
H240        H  0.16091360  0.50778330  0.86377210     0.07100
N241        N  0.30704484  0.79840812  0.76629851    -0.27300
N242        N  0.30810826  0.78346620  0.75597010    -0.35200
C243        C  0.29070382  0.76558489  0.75716716     0.01000
C244        C  0.27807891  0.76931152  0.76888801     0.07100
C245        C  0.28899974  0.79032458  0.77443704    -0.06000
H246        H  0.28811613  0.75045909  0.75022821     0.07700
H247        H  0.28433256  0.79903867  0.78372246     0.08900
Cu248      Cu  0.33453617  0.78689740  0.74132586     0.44200
Cu249      Cu  0.33088176  0.82850089  0.76869656     0.42000
Cu250      Cu  0.38209511  0.83462758  0.74522309     0.43900
N251        N  0.36430893  0.79134791  0.72867945    -0.34700
N252        N  0.38211494  0.80817441  0.73022856    -0.28900
C253        C  0.39855252  0.80586260  0.72030399    -0.05000
C254        C  0.39051689  0.78682961  0.71207931     0.07200
C255        C  0.36876367  0.77807603  0.71770943     0.01000
H256        H  0.41459053  0.81781655  0.71890006     0.08600
H257        H  0.35689107  0.76326051  0.71406804     0.07700
N258        N  0.37531150  0.85967608  0.76045965    -0.36100
N259        N  0.35642402  0.85751391  0.76874003    -0.28300
C260        C  0.35589216  0.87760024  0.77666322    -0.03600
C261        C  0.37542709  0.89317572  0.77329793     0.05000
C262        C  0.38745485  0.88117570  0.76301822     0.03100
H263        H  0.34191265  0.88086063  0.78413703     0.08200
H264        H  0.40305228  0.88815429  0.75736813     0.07100
N265        N  0.38590890  0.18614120  0.80501453    -0.27300
N266        N  0.39710076  0.20155252  0.81329762    -0.35200
C267        C  0.38985636  0.22506956  0.81067188     0.01000
C268        C  0.37319365  0.22459678  0.80023141     0.07100
C269        C  0.37132497  0.19947967  0.79689830    -0.06000
H270        H  0.39582771  0.24117297  0.81627748     0.07700
H271        H  0.35951597  0.19122454  0.78946261     0.08900
Cu272      Cu  0.41986604  0.19014867  0.82872459     0.44200
Cu273      Cu  0.38933271  0.14744069  0.80554564     0.42000
Cu274      Cu  0.42905307  0.12403359  0.83129415     0.43900
N275        N  0.43797702  0.17339545  0.84450168    -0.34700
N276        N  0.44057503  0.14893303  0.84554159    -0.28900
C277        C  0.45064223  0.14348192  0.85727882    -0.05000
C278        C  0.45492001  0.16562469  0.86393663     0.07200
C279        C  0.44674369  0.18424162  0.85551965     0.01000
H280        H  0.45429831  0.12474583  0.86074795     0.08600
H281        H  0.44615947  0.20410328  0.85750436     0.07700
N282        N  0.41314272  0.10163630  0.81708644    -0.36100
N283        N  0.39747590  0.10976874  0.80804625    -0.28300
C284        C  0.38927731  0.09011080  0.80097518    -0.03600
C285        C  0.40076659  0.06879069  0.80569873     0.05000
C286        C  0.41578495  0.07679988  0.81586485     0.03100
H287        H  0.37635411  0.09130714  0.79285075     0.08200
H288        H  0.42738262  0.06535335  0.82211262     0.07100
N289        N  0.32793119  0.24161025  0.07570886    -0.27300
N290        N  0.33312192  0.23616200  0.06332794    -0.35200
C291        C  0.31842566  0.24978816  0.05542090     0.01000
C292        C  0.30312261  0.26463528  0.06315772     0.07100
C293        C  0.30962198  0.25875488  0.07599469    -0.06000
H294        H  0.31952378  0.24947196  0.04480600     0.07700
H295        H  0.30250219  0.26720279  0.08490415     0.08900
Cu296      Cu  0.36264923  0.21378957  0.05757234     0.44200
Cu297      Cu  0.34781284  0.22738134  0.09156797     0.42000
Cu298      Cu  0.40409057  0.19346076  0.08322795     0.43900
N299        N  0.39862176  0.20154552  0.05414037    -0.34700
N300        N  0.41440571  0.19583046  0.06362935    -0.28900
C301        C  0.43749806  0.19424788  0.05853869    -0.05000
C302        C  0.43600610  0.19876918  0.04518710     0.07200
C303        C  0.41110734  0.20313575  0.04271519     0.01000
H304        H  0.45421033  0.19106805  0.06421790     0.08600
H305        H  0.40302642  0.20922799  0.03352679     0.07700
N306        N  0.39028056  0.19649611  0.10219578    -0.36100
N307        N  0.37049509  0.20993765  0.10534661    -0.28300
C308        C  0.36778123  0.20983795  0.11850260    -0.03600
C309        C  0.38648962  0.19527083  0.12384299     0.05000
C310        C  0.40035630  0.18706412  0.11321637     0.03100
H311        H  0.35322535  0.21958862  0.12378129     0.08200
H312        H  0.41710545  0.17586620  0.11350600     0.07100
N313        N  0.55929020  0.26048246  0.00366005    -0.27300
N314        N  0.55340460  0.25674431  0.01613435    -0.35200
C315        C  0.56733599  0.27180763  0.02372467     0.01000
C316        C  0.58279664  0.28599131  0.01573900     0.07100
C317        C  0.57722306  0.27809653  0.00304410    -0.06000
H318        H  0.56573598  0.27264217  0.03430952     0.07700
H319        H  0.58495889  0.28518637  0.99396675     0.08900
Cu320      Cu  0.52485586  0.23373537  0.02276943     0.44200
Cu321      Cu  0.54152211  0.24262007  0.98797959     0.42000
Cu322      Cu  0.48748650  0.20653578  0.99767706     0.43900
N323        N  0.49164793  0.21526911  0.02672014    -0.34700
N324        N  0.47732356  0.20639946  0.01724615    -0.28900
C325        C  0.45570121  0.19849283  0.02242911    -0.05000
C326        C  0.45660442  0.20215702  0.03585720     0.07200
C327        C  0.47966846  0.21278203  0.03828787     0.01000
H328        H  0.44025480  0.19115256  0.01679326     0.08600
H329        H  0.48655352  0.21962840  0.04761830     0.07700
N330        N  0.50067318  0.20818181  0.97862947    -0.36100
N331        N  0.52004329  0.22165389  0.97487360    -0.28300
C332        C  0.52298483  0.21896114  0.96178664    -0.03600
C333        C  0.50469762  0.20281608  0.95713911     0.05000
C334        C  0.49095179  0.19642611  0.96814900     0.03100
H335        H  0.53746367  0.22798328  0.95611604     0.08200
H336        H  0.47465976  0.18454991  0.96852811     0.07100
N337        N  0.74160016  0.43044856  0.05445746    -0.27300
N338        N  0.72605802  0.43746000  0.06384300    -0.35200
C339        C  0.70339655  0.42786454  0.06128926     0.01000
C340        C  0.70468866  0.41420071  0.04968913     0.07100
C341        C  0.72923770  0.41640299  0.04564278    -0.06000
H342        H  0.68740722  0.43004159  0.06766109     0.07700
H343        H  0.73790188  0.40724300  0.03732701     0.08900
Cu344      Cu  0.73706641  0.45743750  0.08040315     0.44200
Cu345      Cu  0.77955605  0.43733689  0.05488960     0.42000
Cu346      Cu  0.80357832  0.46304569  0.08529993     0.43900
N347        N  0.75315576  0.47280166  0.09714602    -0.34700
N348        N  0.77745137  0.47380151  0.09915323    -0.28900
C349        C  0.78177860  0.48234933  0.11138260    -0.05000
C350        C  0.75910368  0.48723318  0.11731663     0.07200
C351        C  0.74137436  0.48107986  0.10798371     0.01000
H352        H  0.80007649  0.48463175  0.11565918     0.08600
H353        H  0.72136469  0.48147082  0.10919480     0.07700
N354        N  0.82578088  0.45217887  0.06967518    -0.36100
N355        N  0.81707148  0.44320125  0.05847504    -0.28300
C356        C  0.83628447  0.43832391  0.05037981    -0.03600
C357        C  0.85818586  0.44442442  0.05683178     0.05000
C358        C  0.85073442  0.45317627  0.06904166     0.03100
H359        H  0.83438113  0.43062173  0.04059160     0.08200
H360        H  0.86249215  0.46016444  0.07685611     0.07100
N361        N  0.14952734  0.41772399  0.02657641    -0.27300
N362        N  0.16544518  0.42376408  0.01718457    -0.35200
C363        C  0.18675183  0.41103200  0.01901874     0.01000
C364        C  0.18419765  0.39624682  0.03013707     0.07100
C365        C  0.16030278  0.40109477  0.03465595    -0.06000
H366        H  0.20276388  0.41226946  0.01259628     0.07700
H367        H  0.15098578  0.39247546  0.04291860     0.08900
Cu368      Cu  0.15693950  0.44788462  0.00183660     0.44200
Cu369      Cu  0.11308557  0.43050096  0.02736826     0.42000
Cu370      Cu  0.09374326  0.46994320  0.00017248     0.43900
N371        N  0.14357625  0.47052457  0.98684091    -0.34700
N372        N  0.12049211  0.47896232  0.98632520    -0.28900
C373        C  0.11729995  0.49165654  0.97504562    -0.05000
C374        C  0.13940624  0.49095635  0.96802275     0.07200
C375        C  0.15564740  0.47745090  0.97585335     0.01000
H376        H  0.09976572  0.49950229  0.97186157     0.08600
H377        H  0.17464609  0.47233083  0.97357779     0.07700
N378        N  0.06979675  0.45633136  0.01440175    -0.36100
N379        N  0.07678361  0.44253459  0.02450945    -0.28300
C380        C  0.05657020  0.43667008  0.03170340    -0.03600
C381        C  0.03586134  0.44704419  0.02572605     0.05000
C382        C  0.04499530  0.45936102  0.01479215     0.03100
H383        H  0.05686652  0.42504660  0.04039086     0.08200
H384        H  0.03443581  0.46980250  0.00761611     0.07100
C385        C  0.88396292  0.44260418  0.05177164    -0.01300
C386        C  0.88867039  0.44248929  0.03823018    -0.09300
C387        C  0.91304517  0.44215413  0.03344465    -0.18200
C388        C  0.93361627  0.44183006  0.04212339     0.04200
C389        C  0.92865862  0.44096839  0.05584617     0.18400
C390        C  0.90407683  0.44147338  0.06050623    -0.19600
C391        C  0.94825740  0.43987183  0.06487394    -0.20900
C392        C  0.97281225  0.43995939  0.06058367    -0.19400
C393        C  0.97837173  0.44148419  0.04717027     0.19800
C394        C  0.95887938  0.44252889  0.03772537     0.01900
C395        C  0.96556925  0.44476426  0.02432787    -0.14100
C396        C  0.99049228  0.44616873  0.02052417    -0.11800
C397        C  0.00956672  0.44502098  0.02986654     0.01500
C398        C  0.00338116  0.44239157  0.04316367    -0.24000
H399        H  0.87347773  0.44325698  0.03126011     0.09500
H400        H  0.91512948  0.44224864  0.02291134     0.13000
H401        H  0.90064929  0.44096783  0.07100357     0.11800
H402        H  0.94457126  0.43905770  0.07534436     0.12900
H403        H  0.98757295  0.43919061  0.06782789     0.12000
H404        H  0.95201547  0.44587050  0.01655695     0.09100
H405        H  0.99483628  0.44797484  0.01017026     0.12300
H406        H  0.01805974  0.44176910  0.05046267     0.14200
C407        C  0.68524370  0.39795120  0.04379562    -0.01300
C408        C  0.68681572  0.39059372  0.03058639    -0.09300
C409        C  0.66974801  0.37364100  0.02524213    -0.18200
C410        C  0.65062016  0.36312441  0.03304946     0.04200
C411        C  0.64878858  0.37113353  0.04636704     0.18400
C412        C  0.66577938  0.38854770  0.05152644    -0.19600
C413        C  0.63043143  0.36119867  0.05460567    -0.20900
C414        C  0.61417569  0.34298284  0.05002202    -0.19400
C415        C  0.61569459  0.33438555  0.03704341     0.19800
C416        C  0.63363692  0.34455399  0.02827420     0.01900
C417        C  0.63393911  0.33537263  0.01520726    -0.14100
C418        C  0.61748498  0.31655178  0.01115748    -0.11800
C419        C  0.60017793  0.30620921  0.01994277     0.01500
C420        C  0.59937375  0.31548594  0.03285426    -0.24000
H421        H  0.70145462  0.39783615  0.02433254     0.09500
H422        H  0.67233664  0.36876261  0.01504975     0.13000
H423        H  0.66440460  0.39393325  0.06177627     0.11800
H424        H  0.62889994  0.36725016  0.06475158     0.12900
H425        H  0.60042206  0.33540073  0.05672890     0.12000
H426        H  0.64672254  0.34228056  0.00789300     0.09100
H427        H  0.61858370  0.30993846  0.00111377     0.12300
H428        H  0.58590039  0.30814944  0.03976239     0.14200
C429        C  0.28542165  0.28419035  0.05870042    -0.01300
C430        C  0.26720753  0.29354292  0.06726011    -0.09300
C431        C  0.25072322  0.31218729  0.06321519    -0.18200
C432        C  0.25195666  0.32228904  0.05038358     0.04200
C433        C  0.27059824  0.31289205  0.04176320     0.18400
C434        C  0.28693457  0.29400958  0.04593867    -0.19600
C435        C  0.27288565  0.32240872  0.02900955    -0.20900
C436        C  0.25688626  0.34094056  0.02455472    -0.19400
C437        C  0.23808629  0.35035255  0.03271059     0.19800
C438        C  0.23535297  0.34123474  0.04575981     0.01900
C439        C  0.21594798  0.35132016  0.05353423    -0.14100
C440        C  0.19971330  0.36925534  0.04847816    -0.11800
C441        C  0.20227066  0.37797625  0.03556514     0.01500
C442        C  0.22176357  0.36861495  0.02779976    -0.24000
H443        H  0.26547138  0.28629010  0.07714421     0.09500
H444        H  0.23725254  0.31828629  0.07038452     0.13000
H445        H  0.30111638  0.28727356  0.03923862     0.11800
H446        H  0.28712728  0.31541185  0.02240522     0.12900
H447        H  0.25910991  0.34781707  0.01460605     0.12000
H448        H  0.21263801  0.34559204  0.06352979     0.09100
H449        H  0.18508414  0.37634563  0.05478515     0.12300
H450        H  0.22392202  0.37502629  0.01776782     0.14200
C451        C  0.46442905  0.16868066  0.87747713    -0.01300
C452        C  0.45886314  0.15097540  0.88716681    -0.09300
C453        C  0.46648913  0.15460045  0.90016874    -0.18200
C454        C  0.48028951  0.17605376  0.90384842     0.04200
C455        C  0.48699978  0.19322002  0.89378680     0.18400
C456        C  0.47876567  0.18958189  0.88082395    -0.19600
C457        C  0.50161072  0.21413917  0.89673901    -0.20900
C458        C  0.50909028  0.21889225  0.90957244    -0.19400
C459        C  0.50174503  0.20311076  0.91981950     0.19800
C460        C  0.48734247  0.18136572  0.91712611     0.01900
C461        C  0.47997235  0.16641009  0.92789908    -0.14100
C462        C  0.48600613  0.17321308  0.94077685    -0.11800
C463        C  0.49986232  0.19488234  0.94338671     0.01500
C464        C  0.50812107  0.20942730  0.93280708    -0.24000
H465        H  0.44792789  0.13457274  0.88476830     0.09500
H466        H  0.46123310  0.14033657  0.90710130     0.13000
H467        H  0.48357146  0.20306395  0.87328843     0.11800
H468        H  0.50708659  0.22708584  0.88907914     0.12900
H469        H  0.52017746  0.23541387  0.91154382     0.12000
H470        H  0.46900342  0.14968281  0.92673769     0.09100
H471        H  0.47965581  0.16141154  0.94873709     0.12300
H472        H  0.51869391  0.22631712  0.93468810     0.14200
C473        C  0.38031831  0.91848129  0.77850746    -0.01300
C474        C  0.40458392  0.92791482  0.77920979    -0.09300
C475        C  0.40902340  0.95205699  0.78395546    -0.18200
C476        C  0.38909793  0.96774207  0.78784672     0.04200
C477        C  0.36448754  0.95817064  0.78676825     0.18400
C478        C  0.36040852  0.93362932  0.78242989    -0.19600
C479        C  0.34400482  0.97330103  0.78974241    -0.20900
C480        C  0.34737273  0.99803244  0.79350860    -0.19400
C481        C  0.37133309  0.00795306  0.79486435     0.19800
C482        C  0.39258796  0.99274098  0.79245206     0.01900
C483        C  0.41634688  0.00317365  0.79488975    -0.14100
C484        C  0.41882232  0.02779067  0.79927195    -0.11800
C485        C  0.39786189  0.04291755  0.80101911     0.01500
C486        C  0.37417355  0.03297606  0.79877030    -0.24000
H487        H  0.42021060  0.91650227  0.77616070     0.09500
H488        H  0.42815522  0.95813698  0.78413302     0.13000
H489        H  0.34152392  0.92660903  0.78164249     0.11800
H490        H  0.32520316  0.96610422  0.78888499     0.12900
H491        H  0.33111529  0.00941894  0.79549339     0.12000
H492        H  0.43330473  0.99263661  0.79376372     0.09100
H493        H  0.43727132  0.03518055  0.80114712     0.12300
H494        H  0.35791087  0.04455872  0.80044498     0.14200
C495        C  0.17530078  0.66538525  0.80319638    -0.01300
C496        C  0.17513252  0.66851061  0.78950581    -0.09300
C497        C  0.18994780  0.68661372  0.78348513    -0.18200
C498        C  0.20559884  0.70236613  0.79098781     0.04200
C499        C  0.20455607  0.70025362  0.80490399     0.18400
C500        C  0.18951090  0.68196146  0.81084148    -0.19600
C501        C  0.21904528  0.71597416  0.81282271    -0.20900
C502        C  0.23509069  0.73334492  0.80720896    -0.19400
C503        C  0.23731291  0.73518646  0.79353552     0.19800
C504        C  0.22254305  0.71978986  0.78520588     0.01900
C505        C  0.22600349  0.72194190  0.77146810    -0.14100
C506        C  0.24372720  0.73825011  0.76627382    -0.11800
C507        C  0.25836967  0.75320499  0.77452026     0.01500
C508        C  0.25474112  0.75189281  0.78814749    -0.24000
H509        H  0.16385175  0.65664414  0.78328447     0.09500
H510        H  0.18888403  0.68760942  0.77292474     0.13000
H511        H  0.18963226  0.68022023  0.82143876     0.11800
H512        H  0.21819893  0.71461431  0.82344454     0.12900
H513        H  0.24625344  0.74504712  0.81361744     0.12000
H514        H  0.21572508  0.71089873  0.76446361     0.09100
H515        H  0.24597740  0.73909423  0.75570387     0.12300
H516        H  0.26615591  0.76319616  0.79462787     0.14200
C517        C  0.15672622  0.53782049  0.88782671    -0.01300
C518        C  0.17044325  0.51732946  0.89229993    -0.09300
C519        C  0.16924185  0.50990548  0.90542208    -0.18200
C520        C  0.15376743  0.52254505  0.91452121     0.04200
C521        C  0.13986684  0.54337172  0.90992048     0.18400
C522        C  0.14182136  0.55107207  0.89674378    -0.19600
C523        C  0.12362535  0.55599104  0.91841161    -0.20900
C524        C  0.12049578  0.54808070  0.93133176    -0.19400
C525        C  0.13392069  0.52766999  0.93617245     0.19800
C526        C  0.15114240  0.51492482  0.92791425     0.01900
C527        C  0.16488777  0.49501456  0.93341597    -0.14100
C528        C  0.16128420  0.48773684  0.94643461    -0.11800
C529        C  0.14376940  0.49980225  0.95442043     0.01500
C530        C  0.13017699  0.51984574  0.94923000    -0.24000
H531        H  0.18219239  0.50690322  0.88559041     0.09500
H532        H  0.18021370  0.49383935  0.90803068     0.13000
H533        H  0.13090944  0.56677658  0.89329945     0.11800
H534        H  0.11292643  0.57183660  0.91496941     0.12900
H535        H  0.10746618  0.55800507  0.93758527     0.12000
H536        H  0.17864421  0.48468443  0.92794807     0.09100
H537        H  0.17195011  0.47213016  0.95015366     0.12300
H538        H  0.11679839  0.52951326  0.95539299     0.14200
C539        C  0.35872549  0.24588550  0.79471562    -0.01300
C540        C  0.35927750  0.26941789  0.80081257    -0.09300
C541        C  0.34466836  0.28909558  0.79618837    -0.18200
C542        C  0.32885730  0.28597845  0.78520234     0.04200
C543        C  0.32899629  0.26241505  0.77873074     0.18400
C544        C  0.34371560  0.24272000  0.78353099    -0.19600
C545        C  0.31433540  0.25857917  0.76753089    -0.20900
C546        C  0.29951244  0.27766862  0.76259500    -0.19400
C547        C  0.29856147  0.30093453  0.76888427     0.19800
C548        C  0.31295871  0.30534215  0.78039448     0.01900
C549        C  0.31041931  0.32877105  0.78671693    -0.14100
C550        C  0.29436183  0.34697555  0.78179368    -0.11800
C551        C  0.28061236  0.34271915  0.77031531     0.01500
C552        C  0.28295697  0.31971018  0.76384230    -0.24000
H553        H  0.37074526  0.27273644  0.80936885     0.09500
H554        H  0.34623591  0.30654359  0.80142700     0.13000
H555        H  0.34332917  0.22487352  0.77850347     0.11800
H556        H  0.31438415  0.24068429  0.76251892     0.12900
H557        H  0.28846845  0.27409931  0.75387821     0.12000
H558        H  0.32022426  0.33346666  0.79561980     0.09100
H559        H  0.29283891  0.36460992  0.78697760     0.12300
H560        H  0.27202089  0.31611560  0.75508613     0.14200
C561        C  0.13003839  0.45728376  0.62583199    -0.01300
C562        C  0.15329525  0.44618487  0.62792116    -0.09300
C563        C  0.16192329  0.44159341  0.64064127    -0.18200
C564        C  0.14761329  0.44834276  0.65177892     0.04200
C565        C  0.12424727  0.46011262  0.64958784     0.18400
C566        C  0.11556971  0.46410365  0.63673155    -0.19600
C567        C  0.10977732  0.46810791  0.66023879    -0.20900
C568        C  0.11802241  0.46474838  0.67305674    -0.19400
C569        C  0.14072284  0.45286018  0.67556496     0.19800
C570        C  0.15572838  0.44416824  0.66498974     0.01900
C571        C  0.17808761  0.43156923  0.66813589    -0.14100
C572        C  0.18541266  0.42821501  0.68120307    -0.11800
C573        C  0.17084910  0.43733679  0.69159500     0.01500
C574        C  0.14842740  0.44955399  0.68863810    -0.24000
H575        H  0.16483989  0.44075932  0.61966166     0.09500
H576        H  0.18000830  0.43304564  0.64142170     0.13000
H577        H  0.09774949  0.47313483  0.63522377     0.11800
H578        H  0.09203466  0.47723439  0.65864346     0.12900
H579        H  0.10646324  0.47136915  0.68107959     0.12000
H580        H  0.19026131  0.42392730  0.66072780     0.09100
H581        H  0.20276523  0.41865165  0.68312127     0.12300
H582        H  0.13664440  0.45632943  0.69651621     0.14200
C583        C  0.84904428  0.49505583  0.53949187    -0.01300
C584        C  0.85642048  0.49967934  0.55246322    -0.09300
C585        C  0.88150513  0.49860427  0.55603523    -0.18200
C586        C  0.90018921  0.49323257  0.54661972     0.04200
C587        C  0.89258432  0.48889751  0.53342485     0.18400
C588        C  0.86724182  0.48942125  0.53005310    -0.19600
C589        C  0.91033786  0.48452693  0.52360395    -0.20900
C590        C  0.93559189  0.48461358  0.52656422    -0.19400
C591        C  0.94371168  0.48847136  0.53947774     0.19800
C592        C  0.92612638  0.49240119  0.54974716     0.01900
C593        C  0.93530412  0.49515723  0.56269513    -0.14100
C594        C  0.96080749  0.49430916  0.56528466    -0.11800
C595        C  0.97806855  0.49101863  0.55509812     0.01500
C596        C  0.96936655  0.48820819  0.54219740    -0.24000
H597        H  0.84269918  0.50411508  0.55992008     0.09500
H598        H  0.88568702  0.50255943  0.56618459     0.13000
H599        H  0.86179196  0.48629572  0.51992593     0.11800
H600        H  0.90466419  0.48133253  0.51351561     0.12900
H601        H  0.94887040  0.48145938  0.51870279     0.12000
H602        H  0.92325976  0.49769257  0.57106772     0.09100
H603        H  0.96703478  0.49657818  0.57533703     0.12300
H604        H  0.98256175  0.48525227  0.53427359     0.14200
C605        C  0.59491373  0.70121004  0.56252967    -0.01300
C606        C  0.60478427  0.70446803  0.54990243    -0.09300
C607        C  0.62373453  0.68903951  0.54522128    -0.18200
C608        C  0.63335664  0.66947848  0.55302241     0.04200
C609        C  0.62452831  0.66731833  0.56615771     0.18400
C610        C  0.60556178  0.68319270  0.57079926    -0.19600
C611        C  0.63405160  0.64874806  0.57441764    -0.20900
C612        C  0.65159490  0.63174059  0.56978345    -0.19400
C613        C  0.65975037  0.63261199  0.55670983     0.19800
C614        C  0.65084628  0.65159003  0.54815074     0.01900
C615        C  0.65901449  0.65117404  0.53492639    -0.14100
C616        C  0.67464314  0.63229234  0.53031749    -0.11800
C617        C  0.68313379  0.61350270  0.53872495     0.01500
C618        C  0.67611156  0.61409640  0.55200386    -0.24000
H619        H  0.59745574  0.71873573  0.54344819     0.09500
H620        H  0.63013129  0.69268158  0.53536998     0.13000
H621        H  0.59825911  0.68057912  0.58063464     0.11800
H622        H  0.62758035  0.64710112  0.58447634     0.12900
H623        H  0.65831434  0.61737021  0.57637553     0.12000
H624        H  0.65311441  0.66473257  0.52777353     0.09100
H625        H  0.68005920  0.63236084  0.52005598     0.12300
H626        H  0.68246904  0.59947283  0.55854792     0.14200
C627        C  0.44936264  0.74882311  0.63613140    -0.01300
C628        C  0.46609764  0.75446178  0.64627820    -0.09300
C629        C  0.45759993  0.75995973  0.65893763    -0.18200
C630        C  0.43187902  0.76001665  0.66191549     0.04200
C631        C  0.41498793  0.75380024  0.65166635     0.18400
C632        C  0.42379498  0.74836232  0.63898331    -0.19600
C633        C  0.38934729  0.75311896  0.65409767    -0.20900
C634        C  0.38004285  0.75853307  0.66652143    -0.19400
C635        C  0.39612028  0.76510314  0.67677353     0.19800
C636        C  0.42227667  0.76611032  0.67463633     0.01900
C637        C  0.43756291  0.77361309  0.68527017    -0.14100
C638        C  0.42722680  0.78019988  0.69739953    -0.11800
C639        C  0.40149242  0.77903725  0.69941041     0.01500
C640        C  0.38608625  0.77114200  0.68911364    -0.24000
H641        H  0.48593473  0.75496945  0.64446507     0.09500
H642        H  0.47166531  0.76408818  0.66616422     0.13000
H643        H  0.41054074  0.74369389  0.63135380     0.11800
H644        H  0.37637535  0.74836252  0.64632740     0.12900
H645        H  0.36008668  0.75785293  0.66808285     0.12000
H646        H  0.45751397  0.77500954  0.68448072     0.09100
H647        H  0.43945271  0.78613204  0.70527483     0.12300
H648        H  0.36609317  0.77051745  0.69056441     0.14200
C649        C  0.17165564  0.54815421  0.53560786    -0.01300
C650        C  0.17061786  0.55515044  0.52236582    -0.09300
C651        C  0.18709914  0.57307375  0.51734514    -0.18200
C652        C  0.20487039  0.58489006  0.52556068     0.04200
C653        C  0.20532056  0.57798690  0.53905387     0.18400
C654        C  0.18908493  0.55966950  0.54385436    -0.19600
C655        C  0.22180773  0.58955084  0.54778051    -0.20900
C656        C  0.23798467  0.60794129  0.54342125    -0.19400
C657        C  0.23835279  0.61494604  0.53018451     0.19800
C658        C  0.22201972  0.60345251  0.52099882     0.01900
C659        C  0.22374911  0.61102177  0.50770234    -0.14100
C660        C  0.24088685  0.62930937  0.50377126    -0.11800
C661        C  0.25679457  0.64072789  0.51292755     0.01500
C662        C  0.25519709  0.63337623  0.52613329    -0.24000
H663        H  0.15717782  0.54654303  0.51583880     0.09500
H664        H  0.18530202  0.57749258  0.50705827     0.13000
H665        H  0.18963965  0.55484458  0.55419429     0.11800
H666        H  0.22209669  0.58443855  0.55808665     0.12900
H667        H  0.25044090  0.61663940  0.55045576     0.12000
H668        H  0.21228732  0.60298295  0.50009750     0.09100
H669        H  0.24164717  0.63438615  0.49349136     0.12300
H670        H  0.26719874  0.64179714  0.53342991     0.14200
C671        C  0.43137094  0.17033204  0.20348682    -0.01300
C672        C  0.42417213  0.19437754  0.19973382    -0.09300
C673        C  0.41481987  0.19887465  0.18717437    -0.18200
C674        C  0.41297702  0.17940630  0.17779734     0.04200
C675        C  0.42060351  0.15503944  0.18163468     0.18400
C676        C  0.42909126  0.15061792  0.19448617    -0.19600
C677        C  0.42048681  0.13543275  0.17250157    -0.20900
C678        C  0.41381229  0.13969615  0.15949046    -0.19400
C679        C  0.40622300  0.16346239  0.15541082     0.19800
C680        C  0.40476475  0.18343705  0.16462113     0.01900
C681        C  0.39530588  0.20660779  0.16019889    -0.14100
C682        C  0.38872052  0.21008219  0.14705655    -0.11800
C683        C  0.39171893  0.19081198  0.13788600     0.01500
C684        C  0.40024082  0.16746127  0.14213422    -0.24000
H685        H  0.42577699  0.20984397  0.20657147     0.09500
H686        H  0.40998879  0.21794494  0.18497451     0.13000
H687        H  0.43501874  0.13202026  0.19730041     0.11800
H688        H  0.42629847  0.11682638  0.17534766     0.12900
H689        H  0.41461269  0.12429583  0.15256432     0.12000
H690        H  0.39261781  0.22235135  0.16666593     0.09100
H691        H  0.38192047  0.22819251  0.14397218     0.12300
H692        H  0.40204639  0.15232699  0.13508936     0.14200
C693        C  0.42084741  0.77040551  0.37484969    -0.01300
C694        C  0.39598715  0.77581879  0.37786942    -0.09300
C695        C  0.38569348  0.76862776  0.38995234    -0.18200
C696        C  0.40025959  0.75624285  0.39953101     0.04200
C697        C  0.42568629  0.75153889  0.39649227     0.18400
C698        C  0.43550579  0.75818022  0.38420719    -0.19600
C699        C  0.44136779  0.74056297  0.40579646    -0.20900
C700        C  0.43248129  0.73446510  0.41819302    -0.19400
C701        C  0.40751639  0.73852366  0.42146650     0.19800
C702        C  0.39081110  0.74885861  0.41210926     0.01900
C703        C  0.36547083  0.75122254  0.41579074    -0.14100
C704        C  0.35736982  0.74444239  0.42839489    -0.11800
C705        C  0.37428454  0.73554046  0.43773423     0.01500
C706        C  0.39923866  0.73236459  0.43412441    -0.24000
H707        H  0.38436468  0.78536712  0.37078787     0.09500
H708        H  0.36645826  0.77341601  0.39162117     0.13000
H709        H  0.45492360  0.75441341  0.38206634     0.11800
H710        H  0.46078408  0.73705083  0.40354568     0.12900
H711        H  0.44522946  0.72641211  0.42526370     0.12000
H712        H  0.35150521  0.75812675  0.40912449     0.09100
H713        H  0.33794045  0.74683363  0.43095994     0.12300
H714        H  0.41232714  0.72488528  0.44120258     0.14200
C715        C  0.47198801  0.91728175  0.30503765    -0.01300
C716        C  0.44935837  0.92851982  0.30179978    -0.09300
C717        C  0.44858074  0.95342440  0.29778754    -0.18200
C718        C  0.47053755  0.96803397  0.29719990     0.04200
C719        C  0.49331682  0.95670003  0.30105937     0.18400
C720        C  0.49391166  0.93140257  0.30464426    -0.19600
C721        C  0.51532708  0.97069940  0.30139220    -0.20900
C722        C  0.51526177  0.99578927  0.29790923    -0.19400
C723        C  0.49333996  0.00726895  0.29362755     0.19800
C724        C  0.47071132  0.99347931  0.29302388     0.01900
C725        C  0.44938644  0.00562508  0.28800486    -0.14100
C726        C  0.45054723  0.03035781  0.28376204    -0.11800
C727        C  0.47278364  0.04391045  0.28456286     0.01500
C728        C  0.49404658  0.03236013  0.28965925    -0.24000
H729        H  0.43222892  0.91782667  0.30213308     0.09500
H730        H  0.43047982  0.96077103  0.29540704     0.13000
H731        H  0.51140135  0.92277358  0.30739986     0.11800
H732        H  0.53268996  0.96222433  0.30445497     0.12900
H733        H  0.53258187  0.00617252  0.29834338     0.12000
H734        H  0.43168368  0.99637046  0.28692523     0.09100
H735        H  0.43389281  0.03893499  0.27983561     0.12300
H736        H  0.51144955  0.04261299  0.29007020     0.14200
C737        C  0.65173258  0.64405002  0.27770465    -0.01300
C738        C  0.64382633  0.64301163  0.29081745    -0.09300
C739        C  0.62667777  0.66007679  0.29575609    -0.18200
C740        C  0.61664390  0.67904832  0.28772397     0.04200
C741        C  0.62495841  0.68047482  0.27447276     0.18400
C742        C  0.64220300  0.66292880  0.26956140    -0.19600
C743        C  0.61602026  0.69942169  0.26625075    -0.20900
C744        C  0.59896546  0.71695323  0.27091612    -0.19400
C745        C  0.59010768  0.71575607  0.28386350     0.19800
C746        C  0.59870409  0.69662316  0.29240616     0.00300
C747        C  0.58877353  0.69571555  0.30526044    -0.14100
C748        C  0.57117124  0.71300518  0.30946699    -0.11800
C749        C  0.56274868  0.73193553  0.30111437     0.01500
C750        C  0.57247612  0.73336587  0.28831397    -0.24000
H751        H  0.65056169  0.62866121  0.29737640     0.09500
H752        H  0.62178642  0.65785440  0.30595185     0.13000
H753        H  0.64834026  0.66415212  0.25943148     0.11800
H754        H  0.62232034  0.70074087  0.25614910     0.12900
H755        H  0.59248688  0.73141380  0.26431237     0.12000
H756        H  0.59396054  0.68173036  0.31233130     0.09100
H757        H  0.56430141  0.71153877  0.31944120     0.12300
H758        H  0.56593883  0.74780816  0.28171532     0.14200
C759        C  0.73205295  0.52743618  0.19780946    -0.01300
C760        C  0.71752072  0.53859284  0.18803152    -0.09300
C761        C  0.72144118  0.53304688  0.17477006    -0.18200
C762        C  0.74030716  0.51619100  0.17082286     0.04200
C763        C  0.75548126  0.50549151  0.18077193     0.18400
C764        C  0.75106788  0.51094893  0.19408167    -0.19600
C765        C  0.77504196  0.48945584  0.17739022    -0.20900
C766        C  0.77993395  0.48380587  0.16429984    -0.19400
C767        C  0.76502243  0.49358170  0.15428579     0.19800
C768        C  0.74474810  0.50963485  0.15739396     0.01900
C769        C  0.72956386  0.51801873  0.14693685    -0.14100
C770        C  0.73433000  0.51072206  0.13398921    -0.11800
C771        C  0.75459907  0.49534454  0.13099430     0.01500
C772        C  0.77002596  0.48702981  0.14116832    -0.24000
H773        H  0.70273109  0.55142036  0.19062609     0.09500
H774        H  0.70952262  0.54242775  0.16785208     0.13000
H775        H  0.76276751  0.50257935  0.20154006     0.11800
H776        H  0.78674503  0.48132832  0.18492458     0.12900
H777        H  0.79530596  0.47143246  0.16200284     0.12000
H778        H  0.71357186  0.52980967  0.14845385     0.09100
H779        H  0.72217278  0.51730080  0.12624705     0.12300
H780        H  0.78549764  0.47473865  0.13891439     0.14200
C781        C  0.64349320  0.31988204  0.30884601    -0.01300
C782        C  0.63700848  0.32176811  0.29554049    -0.09300
C783        C  0.62037369  0.30492083  0.28982404    -0.18200
C784        C  0.60960662  0.28539629  0.29725764     0.04200
C785        C  0.61628369  0.28349957  0.31074324     0.18400
C786        C  0.63298913  0.30065668  0.31637821    -0.19600
C787        C  0.60627932  0.26446390  0.31854801    -0.20900
C788        C  0.58976018  0.24717782  0.31325078    -0.19400
C789        C  0.58279187  0.24851808  0.30001981     0.19800
C790        C  0.59252063  0.26768652  0.29182176     0.01900
C791        C  0.58469549  0.26824711  0.27855328    -0.14100
C792        C  0.56802061  0.25051995  0.27366320    -0.11800
C793        C  0.55863444  0.23156665  0.28175155     0.01500
C794        C  0.56611401  0.23072933  0.29494203    -0.24000
H795        H  0.64453440  0.33654178  0.28947135     0.09500
H796        H  0.61634534  0.30774613  0.27956674     0.13000
H797        H  0.63797870  0.29881258  0.32664676     0.11800
H798        H  0.61129417  0.26290591  0.32883224     0.12900
H799        H  0.58238270  0.23263554  0.31955704     0.12000
H800        H  0.59111514  0.28209762  0.27167062     0.09100
H801        H  0.56277787  0.25152741  0.26340799     0.12300
H802        H  0.55877571  0.21634480  0.30135282     0.14200
C803        C  0.70290798  0.43335329  0.39407248    -0.01300
C804        C  0.70792549  0.41553878  0.40376721    -0.09300
C805        C  0.70909540  0.42246010  0.41703716    -0.18200
C806        C  0.70490152  0.44750443  0.42100177     0.04200
C807        C  0.69808265  0.46501590  0.41115408     0.18400
C808        C  0.69752312  0.45791853  0.39787077    -0.19600
C809        C  0.69229079  0.48966855  0.41457109    -0.20900
C810        C  0.69397250  0.49763869  0.42754217    -0.19400
C811        C  0.70212048  0.48133162  0.43736568     0.19800
C812        C  0.70763438  0.45598512  0.43427989     0.01900
C813        C  0.71659970  0.44059453  0.44451606    -0.14100
C814        C  0.72058267  0.45019268  0.45713858    -0.11800
C815        C  0.71540547  0.47526698  0.46007654     0.01500
C816        C  0.70562177  0.49054375  0.45017821    -0.24000
H817        H  0.71179772  0.39635419  0.40103938     0.09500
H818        H  0.71341419  0.40785620  0.42394500     0.13000
H819        H  0.69294510  0.47163637  0.39042565     0.11800
H820        H  0.68668508  0.50298121  0.40712685     0.12900
H821        H  0.68961363  0.51693535  0.42983541     0.12000
H822        H  0.72141609  0.42126262  0.44298299     0.09100
H823        H  0.72790273  0.43786846  0.46461744     0.12300
H824        H  0.70174234  0.51002013  0.45226042     0.14200
loop_ 
_geom_bond_atom_site_label_1 
_geom_bond_atom_site_label_2 
_geom_bond_distance 
_geom_bond_site_symmetry_2 
_ccdc_geom_bond_type 
N1            N2   1.321       .  A
N1            C5   1.346       .  A
N1           Cu9   2.080       .  S
N2            C3   1.343       .  A
N2           Cu8   2.064       .  S
C3            C4   1.385       .  A
C3            H6   1.081       .  S
C4            C5   1.389       .  A
C4          C781   1.484       .  S
C5            H7   1.081       .  S
Cu8          N11   2.063       .  S
Cu9          N19   2.080       .  S
Cu10         N12   2.077       .  S
Cu10         N18   2.078       .  S
N11          N12   1.321       .  A
N11          C15   1.343       .  A
N12          C13   1.346       .  A
C13          C14   1.385       .  A
C13          H16   1.082       .  S
C14          C15   1.382       .  A
C14          C38   1.471       .  S
C15          H17   1.082       .  S
N18          N19   1.323       .  A
N18          C22   1.343       .  A
N19          C20   1.348       .  A
C20          C21   1.385       .  A
C20          H23   1.082       .  S
C21          C22   1.384       .  A
C21         C803   1.479       .  S
C22          H24   1.082       .  S
N25          N26   1.321       .  A
N25          C29   1.348       .  A
N25         Cu33   2.076       .  S
N26          C27   1.341       .  A
N26         Cu32   2.070       .  S
C27          C28   1.387       .  A
C27          H30   1.081       .  S
C28          C29   1.388       .  A
C28         C737   1.485       .  S
C29          H31   1.082       .  S
Cu32         N35   2.069       .  S
Cu33         N43   2.077       .  S
Cu34         N36   2.072       .  S
Cu34         N42   2.073       .  S
N35          N36   1.321       .  A
N35          C39   1.345       .  A
N36          C37   1.344       .  A
C37          C38   1.384       .  A
C37          H40   1.082       .  S
C38          C39   1.383       .  A
C39          H41   1.082       .  S
N42          N43   1.322       .  A
N42          C46   1.344       .  A
N43          C44   1.345       .  A
C44          C45   1.386       .  A
C44          H47   1.082       .  S
C45          C46   1.385       .  A
C45         C759   1.481       .  S
C46          H48   1.082       .  S
N49          N50   1.320       .  A
N49          C53   1.348       .  A
N49         Cu57   2.071       .  S
N50          C51   1.340       .  A
N50         Cu56   2.067       .  S
C51          C52   1.386       .  A
C51          H54   1.081       .  S
C52          C53   1.388       .  A
C52         C749   1.483       .  S
C53          H55   1.082       .  S
Cu56         N59   2.067       .  S
Cu57         N67   2.073       .  S
Cu58         N60   2.081       .  S
Cu58         N66   2.082       .  S
N59          N60   1.321       .  A
N59          C63   1.342       .  A
N60          C61   1.349       .  A
C61          C62   1.388       .  A
C61          H64   1.082       .  S
C62          C63   1.384       .  A
C62         C693   1.481       .  S
C63          H65   1.082       .  S
N66          N67   1.325       .  A
N66          C70   1.345       .  A
N67          C68   1.344       .  A
C68          C69   1.380       .  A
C68          H71   1.082       .  S
C69          C70   1.382       .  A
C69         C715   1.471       .  S
C70          H72   1.082       .  S
N73          N74   1.321       .  A
N73          C77   1.344       .  A
N73         Cu81   2.070       .  S
N74          C75   1.344       .  A
N74         Cu80   2.072       .  S
C75          C76   1.386       .  A
C75          H78   1.081       .  S
C76          C77   1.386       .  A
C76         C793   1.482       .  S
C77          H79   1.082       .  S
Cu80         N83   2.072       .  S
Cu81         N91   2.070       .  S
Cu82         N84   2.065       .  S
Cu82         N90   2.065       .  S
N83          N84   1.321       .  A
N83          C87   1.344       .  A
N84          C85   1.345       .  A
C85          C86   1.383       .  A
C85          H88   1.082       .  S
C86          C87   1.384       .  A
C86         C671   1.475       .  S
C87          H89   1.082       .  S
N90          N91   1.322       .  A
N90          C94   1.342       .  A
N91          C92   1.345       .  A
C92          C93   1.385       .  A
C92          H95   1.082       .  S
C93          C94   1.383       .  A
C93         C727   1.475       .  S
C94          H96   1.082       .  S
N97          N98   1.321       .  A
N97         C101   1.349       .  A
N97        Cu105   2.087       .  S
N98          C99   1.339       .  A
N98        Cu104   2.064       .  S
C99         C100   1.386       .  A
C99         H102   1.080       .  S
C100        C101   1.392       .  A
C100        C661   1.490       .  S
C101        H103   1.081       .  S
Cu104       N107   2.063       .  S
Cu105       N115   2.088       .  S
Cu106       N108   2.070       .  S
Cu106       N114   2.071       .  S
N107        N108   1.319       .  A
N107        C111   1.343       .  A
N108        C109   1.346       .  A
C109        C110   1.384       .  A
C109        H112   1.082       .  S
C110        C111   1.383       .  A
C110        C134   1.470       .  S
C111        H113   1.082       .  S
N114        N115   1.324       .  A
N114        C118   1.341       .  A
N115        C116   1.350       .  A
C116        C117   1.388       .  A
C116        H119   1.082       .  S
C117        C118   1.382       .  A
C117        C705   1.480       .  S
C118        H120   1.082       .  S
N121        N122   1.323       .  A
N121        C125   1.347       .  A
N121       Cu129   2.078       .  S
N122        C123   1.342       .  A
N122       Cu128   2.076       .  S
C123        C124   1.386       .  A
C123        H126   1.082       .  S
C124        C125   1.388       .  A
C124        C605   1.483       .  S
C125        H127   1.082       .  S
Cu128       N131   2.076       .  S
Cu129       N139   2.078       .  S
Cu130       N132   2.064       .  S
Cu130       N138   2.064       .  S
N131        N132   1.321       .  A
N131        C135   1.347       .  A
N132        C133   1.343       .  A
C133        C134   1.381       .  A
C133        H136   1.082       .  S
C134        C135   1.385       .  A
C135        H137   1.082       .  S
N138        N139   1.320       .  A
N138        C142   1.342       .  A
N139        C140   1.345       .  A
C140        C141   1.390       .  A
C140        H143   1.081       .  S
C141        C142   1.387       .  A
C141        C627   1.486       .  S
C142        H144   1.081       .  S
N145        N146   1.323       .  A
N145        C149   1.347       .  A
N145       Cu153   2.077       .  S
N146        C147   1.344       .  A
N146       Cu152   2.080       .  S
C147        C148   1.385       .  A
C147        H150   1.082       .  S
C148        C149   1.385       .  A
C148        C617   1.480       .  S
C149        H151   1.082       .  S
Cu152       N155   2.080       .  S
Cu153       N163   2.077       .  S
Cu154       N156   2.071       .  S
Cu154       N162   2.071       .  S
N155        N156   1.321       .  A
N155        C159   1.346       .  A
N156        C157   1.344       .  A
C157        C158   1.386       .  A
C157        H160   1.082       .  S
C158        C159   1.389       .  A
C158        C815   1.485       .  S
C159        H161   1.082       .  S
N162        N163   1.322       .  A
N162        C166   1.344       .  A
N163        C164   1.345       .  A
C164        C165   1.386       .  A
C164        H167   1.082       .  S
C165        C166   1.385       .  A
C165        C583   1.481       .  S
C166        H168   1.082       .  S
N169        N170   1.322       .  A
N169        C173   1.348       .  A
N169       Cu177   2.080       .  S
N170        C171   1.341       .  A
N170       Cu176   2.066       .  S
C171        C172   1.383       .  A
C171        H174   1.082       .  S
C172        C173   1.387       .  A
C172        C649   1.479       .  S
C173        H175   1.082       .  S
Cu176       N179   2.066       .  S
Cu177       N187   2.081       .  S
Cu178       N180   2.077       .  S
Cu178       N186   2.078       .  S
N179        N180   1.320       .  A
N179        C183   1.344       .  A
N180        C181   1.346       .  A
C181        C182   1.388       .  A
C181        H184   1.082       .  S
C182        C183   1.385       .  A
C182        C561   1.482       .  S
C183        H185   1.082       .  S
N186        N187   1.323       .  A
N186        C190   1.344       .  A
N187        C188   1.346       .  A
C188        C189   1.386       .  A
C188        H191   1.082       .  S
C189        C190   1.385       .  A
C189        C595   1.481   1_455  S
C190        H192   1.082       .  S
N193        N194   1.322       .  A
N193        C197   1.349       .  A
N193       Cu201   2.092       .  S
N194        C195   1.342       .  A
N194       Cu200   2.064       .  S
C195        C196   1.382       .  A
C195        H198   1.082       .  S
C196        C197   1.389       .  A
C196        C551   1.481       .  S
C197        H199   1.082       .  S
Cu200       N203   2.063       .  S
Cu201       N211   2.092       .  S
Cu202       N204   2.068       .  S
Cu202       N210   2.069       .  S
N203        N204   1.320       .  A
N203        C207   1.343       .  A
N204        C205   1.345       .  A
C205        C206   1.384       .  A
C205        H208   1.082       .  S
C206        C207   1.382       .  A
C206        C230   1.468       .  S
C207        H209   1.082       .  S
N210        N211   1.322       .  A
N210        C214   1.343       .  A
N211        C212   1.348       .  A
C212        C213   1.391       .  A
C212        H215   1.081       .  S
C213        C214   1.385       .  A
C213        C573   1.488       .  S
C214        H216   1.081       .  S
N217        N218   1.321       .  A
N217        C221   1.346       .  A
N217       Cu225   2.081       .  S
N218        C219   1.342       .  A
N218       Cu224   2.066       .  S
C219        C220   1.387       .  A
C219        H222   1.081       .  S
C220        C221   1.391       .  A
C220        C495   1.489       .  S
C221        H223   1.081       .  S
Cu224       N227   2.065       .  S
Cu225       N235   2.080       .  S
Cu226       N228   2.068       .  S
Cu226       N234   2.068       .  S
N227        N228   1.321       .  A
N227        C231   1.345       .  A
N228        C229   1.343       .  A
C229        C230   1.382       .  A
C229        H232   1.082       .  S
C230        C231   1.382       .  A
C231        H233   1.082       .  S
N234        N235   1.322       .  A
N234        C238   1.343       .  A
N235        C236   1.347       .  A
C236        C237   1.387       .  A
C236        H239   1.082       .  S
C237        C238   1.383       .  A
C237        C517   1.479       .  S
C238        H240   1.082       .  S
N241        N242   1.320       .  A
N241        C245   1.345       .  A
N241       Cu249   2.070       .  S
N242        C243   1.343       .  A
N242       Cu248   2.065       .  S
C243        C244   1.385       .  A
C243        H246   1.082       .  S
C244        C245   1.387       .  A
C244        C507   1.480       .  S
C245        H247   1.082       .  S
Cu248       N251   2.065       .  S
Cu249       N259   2.071       .  S
Cu250       N252   2.079       .  S
Cu250       N258   2.079       .  S
N251        N252   1.322       .  A
N251        C255   1.343       .  A
N252        C253   1.346       .  A
C253        C254   1.385       .  A
C253        H256   1.082       .  S
C254        C255   1.382       .  A
C254        C639   1.476       .  S
C255        H257   1.082       .  S
N258        N259   1.323       .  A
N258        C262   1.347       .  A
N259        C260   1.342       .  A
C260        C261   1.382       .  A
C260        H263   1.082       .  S
C261        C262   1.385       .  A
C261        C473   1.476       .  S
C262        H264   1.082       .  S
N265        N266   1.322       .  A
N265        C269   1.345       .  A
N265       Cu273   2.080       .  S
N266        C267   1.345       .  A
N266       Cu272   2.083       .  S
C267        C268   1.390       .  A
C267        H270   1.081       .  S
C268        C269   1.389       .  A
C268        C539   1.491       .  S
C269        H271   1.081       .  S
Cu272       N275   2.083       .  S
Cu273       N283   2.080       .  S
Cu274       N276   2.062       .  S
Cu274       N282   2.061       .  S
N275        N276   1.321       .  A
N275        C279   1.346       .  A
N276        C277   1.344       .  A
C277        C278   1.383       .  A
C277        H280   1.082       .  S
C278        C279   1.387       .  A
C278        C451   1.478       .  S
C279        H281   1.082       .  S
N282        N283   1.322       .  A
N282        C286   1.342       .  A
N283        C284   1.347       .  A
C284        C285   1.385       .  A
C284        H287   1.082       .  S
C285        C286   1.379       .  A
C285        C485   1.471       .  S
C286        H288   1.082       .  S
N289        N290   1.321       .  A
N289        C293   1.346       .  A
N289       Cu297   2.082       .  S
N290        C291   1.344       .  A
N290       Cu296   2.071       .  S
C291        C292   1.387       .  A
C291        H294   1.081       .  S
C292        C293   1.389       .  A
C292        C429   1.487       .  S
C293        H295   1.081       .  S
Cu296       N299   2.070       .  S
Cu297       N307   2.081       .  S
Cu298       N300   2.072       .  S
Cu298       N306   2.072       .  S
N299        N300   1.322       .  A
N299        C303   1.344       .  A
N300        C301   1.346       .  A
C301        C302   1.382       .  A
C301        H304   1.082       .  S
C302        C303   1.381       .  A
C302        C326   1.468       .  S
C303        H305   1.082       .  S
N306        N307   1.323       .  A
N306        C310   1.345       .  A
N307        C308   1.346       .  A
C308        C309   1.385       .  A
C308        H311   1.082       .  S
C309        C310   1.383       .  A
C309        C683   1.476       .  S
C310        H312   1.082       .  S
N313        N314   1.323       .  A
N313        C317   1.348       .  A
N313       Cu321   2.089   1_554  S
N314        C315   1.343       .  A
N314       Cu320   2.078       .  S
C315        C316   1.387       .  A
C315        H318   1.081       .  S
C316        C317   1.391       .  A
C316        C419   1.490       .  S
C317        H319   1.081   1_554  S
Cu320       N323   2.077       .  S
Cu321       N331   2.088       .  S
Cu322       N324   2.063   1_556  S
Cu322       N330   2.064       .  S
N323        N324   1.321       .  A
N323        C327   1.347       .  A
N324        C325   1.343       .  A
C325        C326   1.380       .  A
C325        H328   1.082       .  S
C326        C327   1.385       .  A
C327        H329   1.082       .  S
N330        N331   1.322       .  A
N330        C334   1.343       .  A
N331        C332   1.348       .  A
C332        C333   1.390       .  A
C332        H335   1.082       .  S
C333        C334   1.384       .  A
C333        C463   1.484       .  S
C334        H336   1.082       .  S
N337        N338   1.321       .  A
N337        C341   1.344       .  A
N337       Cu345   2.072       .  S
N338        C339   1.346       .  A
N338       Cu344   2.079       .  S
C339        C340   1.388       .  A
C339        H342   1.082       .  S
C340        C341   1.386       .  A
C340        C407   1.484       .  S
C341        H343   1.082       .  S
Cu344       N347   2.078       .  S
Cu345       N355   2.072       .  S
Cu346       N348   2.069       .  S
Cu346       N354   2.069       .  S
N347        N348   1.322       .  A
N347        C351   1.345       .  A
N348        C349   1.345       .  A
C349        C350   1.384       .  A
C349        H352   1.082       .  S
C350        C351   1.384       .  A
C350        C771   1.476       .  S
C351        H353   1.082       .  S
N354        N355   1.321       .  A
N354        C358   1.343       .  A
N355        C356   1.345       .  A
C356        C357   1.386       .  A
C356        H359   1.082       .  S
C357        C358   1.385       .  A
C357        C385   1.480       .  S
C358        H360   1.082       .  S
N361        N362   1.322       .  A
N361        C365   1.345       .  A
N361       Cu369   2.076       .  S
N362        C363   1.346       .  A
N362       Cu368   2.079       .  S
C363        C364   1.388       .  A
C363        H366   1.081       .  S
C364        C365   1.387       .  A
C364        C441   1.486       .  S
C365        H367   1.081       .  S
Cu368       N371   2.079   1_554  S
Cu369       N379   2.075       .  S
Cu370       N372   2.068   1_554  S
Cu370       N378   2.068       .  S
N371        N372   1.321       .  A
N371        C375   1.344       .  A
N372        C373   1.346       .  A
C373        C374   1.385       .  A
C373        H376   1.082       .  S
C374        C375   1.387       .  A
C374        C529   1.482       .  S
C375        H377   1.082       .  S
N378        N379   1.322       .  A
N378        C382   1.343       .  A
N379        C380   1.346       .  A
C380        C381   1.386       .  A
C380        H383   1.082       .  S
C381        C382   1.383       .  A
C381        C397   1.477       .  S
C382        H384   1.082       .  S
C385        C386   1.400       .  A
C385        C390   1.401       .  A
C386        C387   1.396       .  A
C386        H399   1.083       .  S
C387        C388   1.415       .  A
C387        H400   1.077       .  S
C388        C394   1.429       .  A
C388        C389   1.421       .  A
C389        C391   1.399       .  A
C389        C390   1.403       .  A
C390        H401   1.084       .  S
C391        C392   1.389       .  A
C391        H402   1.084       .  S
C392        C393   1.399       .  A
C392        H403   1.084       .  S
C393        C394   1.423       .  A
C393        C398   1.404   1_655  A
C394        C395   1.414       .  A
C395        C396   1.395       .  A
C395        H404   1.077       .  S
C396        C397   1.400   1_655  A
C396        H405   1.083       .  S
C397        C398   1.400       .  A
C398        H406   1.084       .  S
C407        C408   1.402       .  A
C407        C412   1.401       .  A
C408        C409   1.399       .  A
C408        H421   1.083       .  S
C409        C410   1.415       .  A
C409        H422   1.077       .  S
C410        C416   1.433       .  A
C410        C411   1.423       .  A
C411        C413   1.398       .  A
C411        C412   1.405       .  A
C412        H423   1.083       .  S
C413        C414   1.388       .  A
C413        H424   1.084       .  S
C414        C415   1.399       .  A
C414        H425   1.084       .  S
C415        C416   1.421       .  A
C415        C420   1.404       .  A
C416        C417   1.416       .  A
C417        C418   1.401       .  A
C417        H426   1.077       .  S
C418        C419   1.403       .  A
C418        H427   1.082       .  S
C419        C420   1.404       .  A
C420        H428   1.082       .  S
C429        C430   1.401       .  A
C429        C434   1.404       .  A
C430        C431   1.398       .  A
C430        H443   1.082       .  S
C431        C432   1.415       .  A
C431        H444   1.077       .  S
C432        C438   1.432       .  A
C432        C433   1.422       .  A
C433        C435   1.400       .  A
C433        C434   1.406       .  A
C434        H445   1.083       .  S
C435        C436   1.390       .  A
C435        H446   1.084       .  S
C436        C437   1.400       .  A
C436        H447   1.084       .  S
C437        C438   1.422       .  A
C437        C442   1.407       .  A
C438        C439   1.414       .  A
C439        C440   1.397       .  A
C439        H448   1.077       .  S
C440        C441   1.401       .  A
C440        H449   1.082       .  S
C441        C442   1.403       .  A
C442        H450   1.083       .  S
C451        C452   1.400       .  A
C451        C456   1.399       .  A
C452        C453   1.398       .  A
C452        H465   1.083       .  S
C453        C454   1.416       .  A
C453        H466   1.077       .  S
C454        C460   1.431       .  A
C454        C455   1.422       .  A
C455        C457   1.399       .  A
C455        C456   1.404       .  A
C456        H467   1.084       .  S
C457        C458   1.389       .  A
C457        H468   1.084       .  S
C458        C459   1.399       .  A
C458        H469   1.084       .  S
C459        C460   1.423       .  A
C459        C464   1.406       .  A
C460        C461   1.414       .  A
C461        C462   1.397       .  A
C461        H470   1.077       .  S
C462        C463   1.402       .  A
C462        H471   1.082       .  S
C463        C464   1.401       .  A
C464        H472   1.084       .  S
C473        C474   1.399       .  A
C473        C478   1.400       .  A
C474        C475   1.398       .  A
C474        H487   1.083       .  S
C475        C476   1.416       .  A
C475        H488   1.078       .  S
C476        C482   1.429       .  A
C476        C477   1.421       .  A
C477        C479   1.399       .  A
C477        C478   1.402       .  A
C478        H489   1.084       .  S
C479        C480   1.389       .  A
C479        H490   1.084       .  S
C480        C481   1.398   1_565  A
C480        H491   1.084   1_565  S
C481        C482   1.424   1_545  A
C481        C486   1.404       .  A
C482        C483   1.414   1_565  A
C483        C484   1.396       .  A
C483        H492   1.078   1_545  S
C484        C485   1.398       .  A
C484        H493   1.083       .  S
C485        C486   1.397       .  A
C486        H494   1.085       .  S
C495        C496   1.403       .  A
C495        C500   1.404       .  A
C496        C497   1.395       .  A
C496        H509   1.081       .  S
C497        C498   1.413       .  A
C497        H510   1.077       .  S
C498        C504   1.429       .  A
C498        C499   1.421       .  A
C499        C501   1.400       .  A
C499        C500   1.405       .  A
C500        H511   1.082       .  S
C501        C502   1.390       .  A
C501        H512   1.084       .  S
C502        C503   1.399       .  A
C502        H513   1.084       .  S
C503        C504   1.422       .  A
C503        C508   1.405       .  A
C504        C505   1.414       .  A
C505        C506   1.395       .  A
C505        H514   1.077       .  S
C506        C507   1.400       .  A
C506        H515   1.083       .  S
C507        C508   1.401       .  A
C508        H516   1.084       .  S
C517        C518   1.399       .  A
C517        C522   1.401       .  A
C518        C519   1.395       .  A
C518        H531   1.083       .  S
C519        C520   1.415       .  A
C519        H532   1.077       .  S
C520        C526   1.430       .  A
C520        C521   1.423       .  A
C521        C523   1.400       .  A
C521        C522   1.407       .  A
C522        H533   1.084       .  S
C523        C524   1.391       .  A
C523        H534   1.084       .  S
C524        C525   1.400       .  A
C524        H535   1.084       .  S
C525        C526   1.422       .  A
C525        C530   1.408       .  A
C526        C527   1.414       .  A
C527        C528   1.394       .  A
C527        H536   1.077       .  S
C528        C529   1.400       .  A
C528        H537   1.083       .  S
C529        C530   1.403       .  A
C530        H538   1.084       .  S
C539        C540   1.403       .  A
C539        C544   1.405       .  A
C540        C541   1.397       .  A
C540        H553   1.081       .  S
C541        C542   1.414       .  A
C541        H554   1.077       .  S
C542        C548   1.431       .  A
C542        C543   1.421       .  A
C543        C545   1.400       .  A
C543        C544   1.407       .  A
C544        H555   1.082       .  S
C545        C546   1.391       .  A
C545        H556   1.084       .  S
C546        C547   1.399       .  A
C546        H557   1.084       .  S
C547        C548   1.423       .  A
C547        C552   1.407       .  A
C548        C549   1.414       .  A
C549        C550   1.396       .  A
C549        H558   1.077       .  S
C550        C551   1.400       .  A
C550        H559   1.083       .  S
C551        C552   1.401       .  A
C552        H560   1.084       .  S
C561        C562   1.400       .  A
C561        C566   1.401       .  A
C562        C563   1.397       .  A
C562        H575   1.083       .  S
C563        C564   1.415       .  A
C563        H576   1.077       .  S
C564        C570   1.431       .  A
C564        C565   1.423       .  A
C565        C567   1.399       .  A
C565        C566   1.406       .  A
C566        H577   1.084       .  S
C567        C568   1.390       .  A
C567        H578   1.084       .  S
C568        C569   1.400       .  A
C568        H579   1.084       .  S
C569        C570   1.421       .  A
C569        C574   1.405       .  A
C570        C571   1.415       .  A
C571        C572   1.399       .  A
C571        H580   1.077       .  S
C572        C573   1.401       .  A
C572        H581   1.082       .  S
C573        C574   1.404       .  A
C574        H582   1.083       .  S
C583        C584   1.399       .  A
C583        C588   1.402       .  A
C584        C585   1.397       .  A
C584        H597   1.083       .  S
C585        C586   1.416       .  A
C585        H598   1.077       .  S
C586        C592   1.430       .  A
C586        C587   1.422       .  A
C587        C589   1.400       .  A
C587        C588   1.404       .  A
C588        H599   1.084       .  S
C589        C590   1.390       .  A
C589        H600   1.084       .  S
C590        C591   1.399       .  A
C590        H601   1.084       .  S
C591        C592   1.423       .  A
C591        C596   1.406       .  A
C592        C593   1.414       .  A
C593        C594   1.396       .  A
C593        H602   1.077       .  S
C594        C595   1.400       .  A
C594        H603   1.083       .  S
C595        C596   1.401       .  A
C596        H604   1.084       .  S
C605        C606   1.400       .  A
C605        C610   1.404       .  A
C606        C607   1.394       .  A
C606        H619   1.083       .  S
C607        C608   1.414       .  A
C607        H620   1.077       .  S
C608        C614   1.429       .  A
C608        C609   1.422       .  A
C609        C611   1.400       .  A
C609        C610   1.408       .  A
C610        H621   1.083       .  S
C611        C612   1.392       .  A
C611        H622   1.084       .  S
C612        C613   1.400       .  A
C612        H623   1.084       .  S
C613        C614   1.423       .  A
C613        C618   1.408       .  A
C614        C615   1.414       .  A
C615        C616   1.394       .  A
C615        H624   1.077       .  S
C616        C617   1.399       .  A
C616        H625   1.083       .  S
C617        C618   1.402       .  A
C618        H626   1.084       .  S
C627        C628   1.402       .  A
C627        C632   1.403       .  A
C628        C629   1.396       .  A
C628        H641   1.081       .  S
C629        C630   1.414       .  A
C629        H642   1.077       .  S
C630        C636   1.429       .  A
C630        C631   1.421       .  A
C631        C633   1.399       .  A
C631        C632   1.403       .  A
C632        H643   1.082       .  S
C633        C634   1.388       .  A
C633        H644   1.084       .  S
C634        C635   1.399       .  A
C634        H645   1.084       .  S
C635        C636   1.422       .  A
C635        C640   1.403       .  A
C636        C637   1.416       .  A
C637        C638   1.397       .  A
C637        H646   1.077       .  S
C638        C639   1.398       .  A
C638        H647   1.083       .  S
C639        C640   1.400       .  A
C640        H648   1.084       .  S
C649        C650   1.400       .  A
C649        C654   1.399       .  A
C650        C651   1.401       .  A
C650        H663   1.083       .  S
C651        C652   1.417       .  A
C651        H664   1.078       .  S
C652        C658   1.432       .  A
C652        C653   1.422       .  A
C653        C655   1.398       .  A
C653        C654   1.400       .  A
C654        H665   1.084       .  S
C655        C656   1.385       .  A
C655        H666   1.084       .  S
C656        C657   1.398       .  A
C656        H667   1.084       .  S
C657        C658   1.421       .  A
C657        C662   1.400       .  A
C658        C659   1.416       .  A
C659        C660   1.401       .  A
C659        H668   1.078       .  S
C660        C661   1.403       .  A
C660        H669   1.082       .  S
C661        C662   1.403       .  A
C662        H670   1.081       .  S
C671        C672   1.398       .  A
C671        C676   1.401       .  A
C672        C673   1.395       .  A
C672        H685   1.083       .  S
C673        C674   1.414       .  A
C673        H686   1.077       .  S
C674        C680   1.428       .  A
C674        C675   1.423       .  A
C675        C677   1.400       .  A
C675        C676   1.406       .  A
C676        H687   1.084       .  S
C677        C678   1.391       .  A
C677        H688   1.084       .  S
C678        C679   1.400       .  A
C678        H689   1.084       .  S
C679        C680   1.422       .  A
C679        C684   1.405       .  A
C680        C681   1.415       .  A
C681        C682   1.396       .  A
C681        H690   1.077       .  S
C682        C683   1.398       .  A
C682        H691   1.083       .  S
C683        C684   1.401       .  A
C684        H692   1.085       .  S
C693        C694   1.400       .  A
C693        C698   1.400       .  A
C694        C695   1.401       .  A
C694        H707   1.083       .  S
C695        C696   1.417       .  A
C695        H708   1.078       .  S
C696        C702   1.432       .  A
C696        C697   1.423       .  A
C697        C699   1.398       .  A
C697        C698   1.402       .  A
C698        H709   1.084       .  S
C699        C700   1.387       .  A
C699        H710   1.084       .  S
C700        C701   1.398       .  A
C700        H711   1.084       .  S
C701        C702   1.422       .  A
C701        C706   1.401       .  A
C702        C703   1.417       .  A
C703        C704   1.402       .  A
C703        H712   1.078       .  S
C704        C705   1.400       .  A
C704        H713   1.083       .  S
C705        C706   1.400       .  A
C706        H714   1.084       .  S
C715        C716   1.397       .  A
C715        C720   1.399       .  A
C716        C717   1.395       .  A
C716        H729   1.083       .  S
C717        C718   1.415       .  A
C717        H730   1.077       .  S
C718        C724   1.427       .  A
C718        C719   1.422       .  A
C719        C721   1.399       .  A
C719        C720   1.403       .  A
C720        H731   1.085       .  S
C721        C722   1.389       .  A
C721        H732   1.084       .  S
C722        C723   1.399   1_565  A
C722        H733   1.084   1_565  S
C723        C724   1.422   1_545  A
C723        C728   1.403       .  A
C724        C725   1.414   1_565  A
C725        C726   1.394       .  A
C725        H734   1.077   1_545  S
C726        C727   1.399       .  A
C726        H735   1.083       .  S
C727        C728   1.400       .  A
C728        H736   1.084       .  S
C737        C738   1.400       .  A
C737        C742   1.405       .  A
C738        C739   1.390       .  A
C738        H751   1.081       .  S
C739        C740   1.412       .  A
C739        H752   1.076       .  S
C740        C746   1.428       .  A
C740        C741   1.422       .  A
C741        C743   1.401       .  A
C741        C742   1.410       .  A
C742        H753   1.083       .  S
C743        C744   1.394       .  A
C743        H754   1.084       .  S
C744        C745   1.401       .  A
C744        H755   1.084       .  S
C745        C746   1.422       .  A
C745        C750   1.410       .  A
C746        C747   1.412       .  A
C747        C748   1.390       .  A
C747        H756   1.076       .  S
C748        C749   1.399       .  A
C748        H757   1.082       .  S
C749        C750   1.404       .  A
C750        H758   1.084       .  S
C759        C760   1.400       .  A
C759        C764   1.402       .  A
C760        C761   1.396       .  A
C760        H773   1.083       .  S
C761        C762   1.415       .  A
C761        H774   1.077       .  S
C762        C768   1.429       .  A
C762        C763   1.422       .  A
C763        C765   1.399       .  A
C763        C764   1.404       .  A
C764        H775   1.084       .  S
C765        C766   1.390       .  A
C765        H776   1.084       .  S
C766        C767   1.399       .  A
C766        H777   1.084       .  S
C767        C768   1.423       .  A
C767        C772   1.404       .  A
C768        C769   1.415       .  A
C769        C770   1.396       .  A
C769        H778   1.077       .  S
C770        C771   1.398       .  A
C770        H779   1.083       .  S
C771        C772   1.400       .  A
C772        H780   1.084       .  S
C781        C782   1.402       .  A
C781        C786   1.402       .  A
C782        C783   1.395       .  A
C782        H795   1.082       .  S
C783        C784   1.414       .  A
C783        H796   1.077       .  S
C784        C790   1.429       .  A
C784        C785   1.422       .  A
C785        C787   1.399       .  A
C785        C786   1.405       .  A
C786        H797   1.083       .  S
C787        C788   1.389       .  A
C787        H798   1.084       .  S
C788        C789   1.399       .  A
C788        H799   1.084       .  S
C789        C790   1.422       .  A
C789        C794   1.404       .  A
C790        C791   1.414       .  A
C791        C792   1.395       .  A
C791        H800   1.077       .  S
C792        C793   1.400       .  A
C792        H801   1.082       .  S
C793        C794   1.402       .  A
C794        H802   1.083       .  S
C803        C804   1.400       .  A
C803        C808   1.400       .  A
C804        C805   1.400       .  A
C804        H817   1.083       .  S
C805        C806   1.417       .  A
C805        H818   1.078       .  S
C806        C812   1.431       .  A
C806        C807   1.422       .  A
C807        C809   1.399       .  A
C807        C808   1.403       .  A
C808        H819   1.084       .  S
C809        C810   1.389       .  A
C809        H820   1.084       .  S
C810        C811   1.399       .  A
C810        H821   1.084       .  S
C811        C812   1.423       .  A
C811        C816   1.405       .  A
C812        C813   1.414       .  A
C813        C814   1.398       .  A
C813        H822   1.078       .  S
C814        C815   1.402       .  A
C814        H823   1.082       .  S
C815        C816   1.401       .  A
C816        H824   1.083       .  S
