geometry optimzed in LAMMPS
_audit_creation_date              2020-11-30 
_audit_creation_method            'lammps2cif' 
_symmetry_space_group_name_H-M    'P1' 
_symmetry_Int_Tables_number       1 
_symmetry_cell_setting            triclinic 
loop_ 
_symmetry_equiv_pos_as_xyz 
  x,y,z 
_cell_length_a                    55.65459451 
_cell_length_b                    22.02296918259715 
_cell_length_c                    47.858907745098236 
_cell_angle_alpha                 88.08501581323455 
_cell_angle_beta                  112.75637743962062 
_cell_angle_gamma                 84.27595176777115 
loop_ 
_atom_site_label 
_atom_site_type_symbol 
_atom_site_fract_x 
_atom_site_fract_y 
_atom_site_fract_z 
_atom_site_charge 
N1          N  0.45162719  0.49249790  0.19580064    -0.02600
C2          C  0.45717148  0.47597357  0.22547075     0.00000
C3          C  0.44767901  0.52240086  0.23850199    -0.22900
C4          C  0.43664416  0.57007446  0.21655930    -0.23100
C5          C  0.43958780  0.55122708  0.19068363    -0.00100
H6          H  0.45037955  0.52333310  0.26212346     0.13600
H7          H  0.42887529  0.61513868  0.21977455     0.13700
N8          N  0.62946865  0.47351026  0.40896510    -0.02600
C9          C  0.62413277  0.46707198  0.37904424     0.00000
C10         C  0.62436327  0.52190232  0.36442834    -0.22900
C11         C  0.62918823  0.56433828  0.38562779    -0.23100
C12         C  0.63218946  0.53402980  0.41274428    -0.00100
H13         H  0.61957344  0.53103032  0.34038811     0.13600
H14         H  0.62964760  0.61274309  0.38147454     0.13700
In15       In  0.64233932  0.63385250  0.48778575     1.36900
C16         C  0.69365663  0.64143519  0.51035601     0.78400
O17         O  0.64715301  0.54490784  0.46700720    -0.60000
O18         O  0.62723211  0.62384026  0.43771751    -0.50900
C19         C  0.61244300  0.58941866  0.51364775     0.71100
O20         O  0.63472223  0.58093040  0.02812366    -0.45800
C21         C  0.62957676  0.75323138  0.48925748     0.75800
O22         O  0.67631089  0.67152737  0.98953050    -0.57700
O23         O  0.62317261  0.72748878  0.46462034    -0.47700
O24         O  0.68316435  0.61026247  0.52412842    -0.54100
C25         C  0.63546565  0.56768084  0.44002107     0.86000
O26         O  0.60315996  0.62263052  0.48896874    -0.56000
O27         O  0.64131527  0.71751754  0.51284475    -0.59300
In28       In  0.92449811  0.81367664  0.08357796     1.36900
C29         C  0.87259067  0.81139684  0.06232913     0.78400
O30         O  0.92745604  0.72818882  0.05972178    -0.60000
O31         O  0.94125123  0.72001420  0.10772570    -0.50900
C32         C  0.95073655  0.87221350  0.05659250     0.71100
O33         O  0.92642874  0.88494262  0.04961247    -0.45800
C34         C  0.93826609  0.86898170  0.13513443     0.75800
O35         O  0.88722236  0.80125764  0.09007890    -0.57700
O36         O  0.94562450  0.81373720  0.13350845    -0.47700
O37         O  0.88425307  0.82592753  0.04565238    -0.54100
C38         C  0.93703385  0.69312344  0.08376317     0.86000
O39         O  0.96153719  0.82911336  0.07706251    -0.56000
O40         O  0.92343145  0.89709074  0.11001204    -0.59300
In41       In  0.64574096  0.33283106  0.47516265     1.36900
C42         C  0.69577420  0.31611547  0.99841477     0.78400
O43         O  0.63948128  0.23943611  0.48908886    -0.60000
O44         O  0.62489436  0.26621507  0.44189962    -0.50900
C45         C  0.61764429  0.37154223  0.01199758     0.71100
O46         O  0.64116749  0.34756036  0.02237309    -0.45800
C47         C  0.63396016  0.42434272  0.43183072     0.75800
O48         O  0.68376304  0.35307283  0.00946972    -0.57700
O49         O  0.63377110  0.36888491  0.42613183    -0.47700
O50         O  0.68321516  0.27681294  0.47820884    -0.54100
C51         C  0.62810441  0.22471767  0.46230603     0.86000
O52         O  0.60974290  0.36748142  0.48363309    -0.56000
O53         O  0.63964653  0.43265621  0.45938614    -0.59300
In54       In  0.94476013  0.10157811  0.11268547     1.35100
C55         C  0.89322083  0.11708568  0.07863435     0.78400
O56         O  0.94566299  0.00010531  0.12260741    -0.60000
O57         O  0.95347447  0.05732388  0.15909221    -0.50900
C58         C  0.98569781  0.08393231  0.09674708     0.71100
O59         O  0.96226658  0.08850822  0.07750139    -0.45800
C60         C  0.95010238  0.21799590  0.12464234     0.75800
O61         O  0.90964191  0.09050829  0.06940891    -0.57700
O62         O  0.95191993  0.17738669  0.14488669    -0.47700
O63         O  0.90308984  0.13208829  0.10554287    -0.54100
C64         C  0.95135167  0.00375081  0.15063771     0.86000
O65         O  0.98802035  0.08525668  0.12396178    -0.56000
O66         O  0.94573221  0.19863730  0.09885773    -0.59300
N67         N  0.95451291  0.95162129  0.17142599    -0.02600
C68         C  0.96612808  0.94960610  0.20230180     0.00000
C69         C  0.96400390  0.89373305  0.21486590    -0.22900
C70         C  0.95169084  0.85977219  0.19114151    -0.23100
C71         C  0.94633918  0.89566007  0.16475268    -0.00100
H72         H  0.97272438  0.87649073  0.23850004     0.13600
H73         H  0.94864345  0.81226004  0.19296035     0.13700
N74         N  0.13321268  0.10595164  0.40646018    -0.02600
C75         C  0.12354019  0.10831487  0.37555464     0.00000
C76         C  0.13119149  0.15841387  0.36427348    -0.22900
C77         C  0.14478429  0.18928425  0.38877079    -0.23100
C78         C  0.14522842  0.15746757  0.41438081    -0.00100
H79         H  0.12547275  0.17490018  0.34080225     0.13600
H80         H  0.15143480  0.23351253  0.38767241     0.13700
In81       In  0.42846152  0.68095160  0.12006308     1.36900
C82         C  0.37731408  0.71487459  0.08595522     0.78400
O83         O  0.44224993  0.58446173  0.14321302    -0.60000
O84         O  0.42346382  0.64868582  0.16224288    -0.50900
C85         C  0.45645679  0.63828404  0.08909366     0.71100
O86         O  0.43169499  0.64720119  0.07762331    -0.45800
C87         C  0.44742820  0.78335333  0.14342240     0.75800
O88         O  0.38665393  0.65978482  0.09457963    -0.57700
O89         O  0.44064287  0.74448245  0.15796515    -0.47700
O90         O  0.39413694  0.75172715  0.09391364    -0.54100
C91         C  0.43457623  0.59504759  0.16428748     0.86000
O92         O  0.46684580  0.65092481  0.11641780    -0.56000
O93         O  0.44582733  0.76832278  0.11762942    -0.59300
In94       In  0.13681267  0.95669894  0.46320633     1.36900
C95         C  0.13314013  0.05467826  0.42617807     0.78400
O96         O  0.09527538  0.97255700  0.46037272    -0.60000
O97         O  0.12542553  0.99616057  0.00719046    -0.50900
C98         C  0.12626682  0.84336949  0.44998337     0.71100
O99         O  0.12278355  0.88514614  0.42952802    -0.45800
C100        C  0.18826156  0.92752084  0.49429342     0.75800
O101        O  0.12770737  0.00295207  0.41675344    -0.57700
O102        O  0.17374471  0.98201380  0.00596262    -0.47700
O103        O  0.13988677  0.05633287  0.45437228    -0.54100
C104        C  0.10219790  0.98038674  0.48828958     0.86000
O105        O  0.13438002  0.86036136  0.47661717    -0.56000
O106        O  0.17646687  0.91224761  0.46774224    -0.59300
In107      In  0.44761589  0.37160791  0.13082228     1.36900
C108        C  0.39643865  0.36560207  0.10186552     0.78400
O109        O  0.45780149  0.28521413  0.11239568    -0.60000
O110        O  0.45972676  0.27829748  0.15752273    -0.50900
C111        C  0.47694301  0.41370563  0.10392841     0.71100
O112        O  0.45222664  0.42137704  0.09219678    -0.45800
C113        C  0.45171443  0.45094493  0.17314080     0.75800
O114        O  0.40966168  0.39198516  0.09004862    -0.57700
O115        O  0.46373217  0.39733731  0.17958962    -0.47700
O116        O  0.40915285  0.34423950  0.12898425    -0.54100
C117        C  0.46178704  0.25075552  0.13564564     0.86000
O118        O  0.48690762  0.38606181  0.13017981    -0.56000
O119        O  0.43804005  0.46365061  0.14531017    -0.59300
In120      In  0.15594319  0.24808746  0.49211921     1.36900
C121        C  0.20533284  0.24566177  0.02298832     0.78400
O122        O  0.15423428  0.16074367  0.46820787    -0.60000
O123        O  0.15144795  0.24444502  0.44376642    -0.50900
C124        C  0.11493257  0.21955621  0.00646039     0.71100
O125        O  0.13858494  0.19619316  0.01987156    -0.45800
C126        C  0.14309419  0.36879658  0.48961430     0.75800
O127        O  0.19020513  0.22762573  0.03464918    -0.57700
O128        O  0.14072197  0.34076158  0.46630401    -0.47700
O129        O  0.19718413  0.25931928  0.49852972    -0.54100
C130        C  0.15087987  0.18747083  0.44310770     0.86000
O131        O  0.11389767  0.25028103  0.48554827    -0.56000
O132        O  0.15121994  0.34297862  0.01867876    -0.59300
C133        C  0.27625553  0.28296559  0.04563560     0.19500
C134        C  0.28562462  0.33231063  0.03538278    -0.18600
C135        C  0.31105250  0.34639950  0.05135934    -0.10800
C136        C  0.32803548  0.31047089  0.07782133     0.21800
C137        C  0.31874866  0.26063606  0.08793118    -0.20200
C138        C  0.29316351  0.24682207  0.07201994    -0.11000
C139        C  0.35539528  0.32329153  0.09554822    -0.15200
C140        C  0.36856958  0.35903336  0.08463881    -0.29000
C141        C  0.24862322  0.27215463  0.02824718    -0.03300
C142        C  0.23396079  0.24374312  0.04010744    -0.39800
H143        H  0.27297195  0.36108521  0.01520358     0.12900
H144        H  0.31694510  0.38609739  0.04301405     0.12600
H145        H  0.33139566  0.23203144  0.10816648     0.12000
H146        H  0.28684901  0.20768162  0.08031805     0.12200
H147        H  0.36562218  0.29970636  0.11803864     0.15000
H148        H  0.35958268  0.38098538  0.06179163     0.13800
H149        H  0.24102415  0.29556955  0.51151887     0.11400
H150        H  0.24231633  0.22410623  0.06343837     0.13400
C151        C  0.12364249  0.67057871  0.46293705     0.19500
C152        C  0.11899149  0.63559359  0.48498098    -0.18600
C153        C  0.12045532  0.57185753  0.48497796    -0.10800
C154        C  0.12709331  0.54131503  0.46311384     0.21800
C155        C  0.13085126  0.57645178  0.44039423    -0.20200
C156        C  0.12928266  0.64039443  0.44033363    -0.11000
C157        C  0.13076566  0.47320436  0.46360506    -0.15200
C158        C  0.13694747  0.43579317  0.48890969    -0.29000
C159        C  0.12461166  0.73735702  0.46607973    -0.03300
C160        C  0.12214114  0.77913307  0.44360282    -0.39800
H161        H  0.15254555  0.66682210  0.02272652     0.12900
H162        H  0.11647646  0.54693177  0.50224620     0.12600
H163        H  0.13584656  0.55420683  0.42317670     0.12000
H164        H  0.13346997  0.66554792  0.42328292     0.12200
H165        H  0.13015509  0.45327364  0.44290359     0.15000
H166        H  0.13917726  0.45446668  0.51032411     0.13800
H167        H  0.12780185  0.75283402  0.48843996     0.11400
H168        H  0.11769691  0.76622943  0.42062067     0.13400
C169        C  0.46824548  0.07598464  0.15484823     0.19500
C170        C  0.45829919  0.04026740  0.17180396    -0.18600
C171        C  0.45666432  0.97778915  0.16773612    -0.10800
C172        C  0.46521417  0.94935539  0.14670074     0.21800
C173        C  0.47622999  0.98449064  0.13079647    -0.20200
C174        C  0.47796670  0.04673018  0.13494906    -0.11000
C175        C  0.46106376  0.88522296  0.13861493    -0.15200
C176        C  0.45519459  0.84283928  0.15515891    -0.29000
C177        C  0.46706652  0.14362353  0.15754426    -0.03300
C178        C  0.46733398  0.18364868  0.13576842    -0.39800
H179        H  0.45081305  0.06128622  0.18743522     0.12900
H180        H  0.44769258  0.95294482  0.18020586     0.12600
H181        H  0.48316107  0.96388289  0.11461835     0.12000
H182        H  0.48675123  0.07152398  0.12224597     0.12200
H183        H  0.46214546  0.87286443  0.11728919     0.15000
H184        H  0.45476033  0.85247350  0.17703245     0.13800
H185        H  0.46351837  0.16141210  0.17669539     0.11400
H186        H  0.46925168  0.16730737  0.11554079     0.13400
C187        C  0.25739648  0.86730692  0.01730232     0.19500
C188        C  0.26613117  0.80791298  0.01261402    -0.18600
C189        C  0.29250204  0.78331113  0.02745408    -0.10800
C190        C  0.31088366  0.81797184  0.04720725     0.21800
C191        C  0.30222309  0.87779936  0.05148356    -0.20200
C192        C  0.27578370  0.90218596  0.03686647    -0.11000
C193        C  0.33929284  0.79451780  0.06300140    -0.15200
C194        C  0.34899674  0.73468061  0.06852903    -0.29000
C195        C  0.22920041  0.89154805  0.00058904    -0.03300
C196        C  0.21621452  0.90718747  0.51276002    -0.39800
H197        H  0.25244541  0.78029939  0.99738525     0.12900
H198        H  0.29840961  0.73774888  0.02283551     0.12600
H199        H  0.31599515  0.90583873  0.06627236     0.12000
H200        H  0.26997747  0.94865987  0.04045737     0.12200
H201        H  0.35278086  0.82832542  0.07173377     0.15000
H202        H  0.33603865  0.69946077  0.06159589     0.13800
H203        H  0.21822703  0.86936395  0.98036753     0.11400
H204        H  0.22502870  0.92810594  0.53395223     0.13400
C205        C  0.06663767  0.05612377  0.30710867     0.19500
C206        C  0.05301258  0.08136978  0.27701041    -0.18600
C207        C  0.02935160  0.06136500  0.25831667    -0.10800
C208        C  0.01887920  0.01510070  0.26936410     0.21800
C209        C  0.03239353  0.99026230  0.29950263    -0.20200
C210        C  0.05606772  0.00997908  0.31811329    -0.11000
C211        C  0.99474089  0.98894451  0.25027181    -0.15200
C212        C  0.98483783  0.99189988  0.21963826    -0.29000
C213        C  0.09145356  0.07999099  0.32615878    -0.03300
C214        C  0.10212613  0.07340755  0.35681938    -0.39800
H215        H  0.06059700  0.11721852  0.26796274     0.12900
H216        H  0.01938809  0.08261753  0.23545928     0.12600
H217        H  0.02490780  0.95417805  0.30853884     0.12000
H218        H  0.06605913  0.98793445  0.34078641     0.12200
H219        H  0.98635187  0.96060377  0.26226091     0.15000
H220        H  0.99296660  0.01958545  0.20717273     0.13800
H221        H  0.10013753  0.10766908  0.31429783     0.11400
H222        H  0.09297256  0.04765417  0.36873386     0.13400
C223        C  0.02951312  0.10160322  0.05191038     0.19500
C224        C  0.02472230  0.13605194  0.02470157    -0.18600
C225        C  0.04547852  0.15116080  0.01728361    -0.10800
C226        C  0.07173804  0.13224566  0.03706456     0.21800
C227        C  0.07647398  0.09489715  0.06347538    -0.20200
C228        C  0.05566663  0.07970175  0.07087816    -0.11000
C229        C  0.09454136  0.15037314  0.03091812    -0.15200
C230        C  0.09261731  0.19939966  0.01225118    -0.29000
C231        C  0.00676186  0.09145046  0.05991385    -0.03300
C232        C  0.00885246  0.08066294  0.08866656    -0.39800
H233        H  0.00478590  0.15249264  0.00933605     0.12900
H234        H  0.04068899  0.17744988  0.99595841     0.12600
H235        H  0.09640770  0.07820517  0.07873855     0.12000
H236        H  0.06021999  0.05085709  0.09143322     0.12200
H237        H  0.11368296  0.12422056  0.04310210     0.15000
H238        H  0.07393449  0.22749913  0.00071742     0.13800
H239        H  0.98726562  0.09953753  0.04184876     0.11400
H240        H  0.02792460  0.07586227  0.10737070     0.13400
C241        C  0.53336755  0.42268448  0.07713954     0.19500
C242        C  0.56082379  0.41756978  0.09103186    -0.18600
C243        C  0.57593329  0.41730478  0.07352537    -0.10800
C244        C  0.56384876  0.42076090  0.04155354     0.21800
C245        C  0.53634996  0.42852153  0.02766206    -0.20200
C246        C  0.52123540  0.42915992  0.04516773    -0.11000
C247        C  0.57904556  0.41360345  0.02195347    -0.15200
C248        C  0.60390409  0.38615421  0.03220696    -0.29000
C249        C  0.51829213  0.41527404  0.09652344    -0.03300
C250        C  0.49240956  0.43302574  0.08702148    -0.39800
H251        H  0.57066084  0.41290318  0.11557859     0.12900
H252        H  0.59701167  0.41386411  0.08527882     0.12600
H253        H  0.53475655  0.46006092  0.50924879     0.12000
H254        H  0.50017038  0.43202418  0.03339638     0.12200
H255        H  0.57151349  0.40732514  0.49916440     0.15000
H256        H  0.61441290  0.37040363  0.05595521     0.13800
H257        H  0.52869370  0.39153480  0.11894946     0.11400
H258        H  0.48167888  0.45863875  0.06521289     0.13400
C259        C  0.82094165  0.19229362  0.05041727     0.19500
C260        C  0.80836721  0.23397884  0.06347923    -0.18600
C261        C  0.78170267  0.25537891  0.04871681    -0.10800
C262        C  0.76668825  0.23609159  0.02006369     0.21800
C263        C  0.77925846  0.19460807  0.00680481    -0.20200
C264        C  0.80607437  0.17298313  0.02169337    -0.11000
C265        C  0.73779194  0.25546402  0.00419334    -0.15200
C266        C  0.72468263  0.30208606  0.01212837    -0.29000
C267        C  0.84934290  0.17057862  0.06817717    -0.03300
C268        C  0.86487833  0.13181185  0.05924013    -0.39800
H269        H  0.81918143  0.24961654  0.08559606     0.12900
H270        H  0.77305340  0.28573903  0.06046605     0.12600
H271        H  0.76822830  0.17848308  0.98488756     0.12000
H272        H  0.81480563  0.14092308  0.01068168     0.12200
H273        H  0.72676139  0.22941528  0.98557165     0.15000
H274        H  0.73501328  0.33004204  0.03007995     0.13800
H275        H  0.85822631  0.18883795  0.09020602     0.11400
H276        H  0.85740739  0.11311934  0.03726647     0.13400
C277        C  0.04073199  0.97029829  0.01131193     0.19500
C278        C  0.01337856  0.97661564  0.99516913    -0.18600
C279        C  0.99693829  0.95502355  0.00828541    -0.10800
C280        C  0.00759006  0.92620212  0.03797370     0.21800
C281        C  0.03487939  0.92130994  0.05431066    -0.20200
C282        C  0.05126056  0.94283345  0.04122207    -0.11000
C283        C  0.99156814  0.89665119  0.05214879    -0.15200
C284        C  0.96515155  0.90523172  0.04178385    -0.29000
C285        C  0.05867366  0.97543046  0.48982205    -0.03300
C286        C  0.08319179  0.99441556  0.00941117    -0.39800
H287        H  0.00572481  0.99105511  0.46725779     0.12900
H288        H  0.97612672  0.95904315  0.99459197     0.12600
H289        H  0.04370984  0.89913637  0.07712541     0.12000
H290        H  0.07221057  0.93541151  0.05428856     0.12200
H291        H  0.00223855  0.86590507  0.07241354     0.15000
H292        H  0.95369851  0.93754937  0.02251481     0.13800
H293        H  0.05041687  0.97367043  0.46527659     0.11400
H294        H  0.09187374  0.99597424  0.03387950     0.13400
C295        C  0.95153589  0.51991865  0.10918160     0.19500
C296        C  0.95114277  0.48582342  0.13435259    -0.18600
C297        C  0.95179316  0.42195558  0.13492547    -0.10800
C298        C  0.95308034  0.39066600  0.11027364     0.21800
C299        C  0.95439652  0.42464649  0.08563979    -0.20200
C300        C  0.95375301  0.48827838  0.08507874    -0.11000
C301        C  0.95200719  0.32353192  0.10818544    -0.15200
C302        C  0.95260863  0.28316085  0.13034657    -0.29000
C303        C  0.94922765  0.58808388  0.10884936    -0.03300
C304        C  0.94196910  0.62598589  0.08346074    -0.39800
H305        H  0.94967111  0.50886875  0.15337745     0.12900
H306        H  0.95068112  0.39796070  0.15436483     0.12600
H307        H  0.95566619  0.40187057  0.06644859     0.12000
H308        H  0.95503193  0.51209351  0.06568702     0.12200
H309        H  0.95035865  0.30625257  0.08657866     0.15000
H310        H  0.95483722  0.29722312  0.15260252     0.13800
H311        H  0.95202535  0.60800985  0.13020112     0.11400
H312        H  0.93775094  0.60797291  0.06149159     0.13400
C313        C  0.51541817  0.59041253  0.06741947     0.19500
C314        C  0.54272987  0.58404271  0.08381895    -0.18600
C315        C  0.55990891  0.57972544  0.06884291    -0.10800
C316        C  0.55013077  0.58140107  0.03694498     0.21800
C317        C  0.52293152  0.58456681  0.02060197    -0.20200
C318        C  0.50572683  0.58855867  0.03558524    -0.11000
C319        C  0.57018255  0.58997971  0.51878362    -0.15200
C320        C  0.59342732  0.57253440  0.03197954    -0.29000
C321        C  0.49818001  0.60370618  0.08437930    -0.03300
C322        C  0.47183644  0.61645762  0.07145725    -0.39800
H323        H  0.55084247  0.58498571  0.10832188     0.12900
H324        H  0.58068078  0.57844123  0.08232901     0.12600
H325        H  0.51774014  0.61259976  0.49620697     0.12000
H326        H  0.48496697  0.59217680  0.02182767     0.12200
H327        H  0.56107733  0.61389274  0.49626313     0.15000
H328        H  0.60314438  0.54765843  0.05414977     0.13800
H329        H  0.50788435  0.60675743  0.10875387     0.11400
H330        H  0.46105737  0.61339538  0.04738312     0.13400
C331        C  0.61883466  0.05507244  0.47265613     0.19500
C332        C  0.61940834  0.02384521  0.00172712    -0.18600
C333        C  0.61383486  0.95659940  0.49329351    -0.10800
C334        C  0.61611738  0.92767706  0.46848991     0.21800
C335        C  0.61871788  0.96365185  0.44526557    -0.20200
C336        C  0.62022428  0.02655590  0.44733997    -0.11000
C337        C  0.61674065  0.86016775  0.46646141    -0.15200
C338        C  0.62495367  0.81992201  0.49105199    -0.29000
C339        C  0.62313478  0.12022590  0.47752590    -0.03300
C340        C  0.62019329  0.16307235  0.45530571    -0.39800
H341        H  0.62235592  0.04413288  0.02294922     0.12900
H342        H  0.61782845  0.93623287  0.02042666     0.12600
H343        H  0.62049575  0.94261763  0.42590307     0.12000
H344        H  0.62346851  0.05193017  0.42964280     0.12200
H345        H  0.61264462  0.84281977  0.44428795     0.15000
H346        H  0.63079449  0.83601292  0.51363085     0.13800
H347        H  0.63125993  0.13786819  0.00362607     0.11400
H348        H  0.61267435  0.15265958  0.43168678     0.13400
C349        C  0.75536114  0.72174028  0.03067667     0.19500
C350        C  0.76189829  0.76722440  0.01447809    -0.18600
C351        C  0.78669306  0.78738986  0.02611380    -0.10800
C352        C  0.80573253  0.76216137  0.05431371     0.21800
C353        C  0.79897151  0.71806858  0.07096153    -0.20200
C354        C  0.77415684  0.69786390  0.05932821    -0.11000
C355        C  0.83291335  0.77943393  0.06694373    -0.15200
C356        C  0.84436664  0.80421791  0.04984491    -0.29000
C357        C  0.72855238  0.70243834  0.01695000    -0.03300
C358        C  0.71949908  0.65853610  0.02921441    -0.39800
H359        H  0.74773312  0.78733282  0.99261665     0.12900
H360        H  0.79067586  0.82293089  0.01294581     0.12600
H361        H  0.81313889  0.69828720  0.09288581     0.12000
H362        H  0.77005625  0.66364610  0.07300812     0.12200
H363        H  0.84470228  0.76658242  0.09086638     0.15000
H364        H  0.83366941  0.81460514  0.02559990     0.13800
H365        H  0.71517291  0.72722781  0.99570676     0.11400
H366        H  0.73177985  0.63268205  0.05045679     0.13400
C367        C  0.52415675  0.39296874  0.27328577     0.19500
C368        C  0.54878184  0.40207467  0.27332682    -0.18600
C369        C  0.57083719  0.39967216  0.30060242    -0.10800
C370        C  0.56881481  0.38761933  0.32867853     0.21800
C371        C  0.54493295  0.37159596  0.32836870    -0.20200
C372        C  0.52288062  0.37362599  0.30103107    -0.11000
C373        C  0.58878146  0.40387572  0.35792399    -0.15200
C374        C  0.61297393  0.41566729  0.36132780    -0.29000
C375        C  0.50039446  0.41486607  0.24524921    -0.03300
C376        C  0.47587614  0.42394681  0.24455528    -0.39800
H377        H  0.55056738  0.41633334  0.25239560     0.12900
H378        H  0.58862778  0.41280666  0.29941966     0.12600
H379        H  0.54280738  0.36157183  0.34955603     0.12000
H380        H  0.50471215  0.36376735  0.30232664     0.12200
H381        H  0.58153423  0.41821784  0.37506575     0.15000
H382        H  0.62062514  0.40250795  0.34445809     0.13800
H383        H  0.50387898  0.43621238  0.22655965     0.11400
H384        H  0.47173387  0.40644164  0.26339543     0.13400
N385        N  0.45293541  0.48857075  0.69707501    -0.02600
C386        C  0.45598830  0.47013875  0.72572532     0.00000
C387        C  0.44442590  0.51486856  0.73764978    -0.22900
C388        C  0.43452355  0.56341089  0.71603414    -0.23100
C389        C  0.44032402  0.54659183  0.69158922    -0.00100
H390        H  0.44506870  0.51426859  0.76055496     0.13600
H391        H  0.42560802  0.60764129  0.71867692     0.13700
N392        N  0.62754176  0.48271811  0.91285109    -0.02600
C393        C  0.62122937  0.47733444  0.88270515     0.00000
C394        C  0.62075582  0.53266912  0.86806890    -0.22900
C395        C  0.62624344  0.57439237  0.88960032    -0.23100
C396        C  0.63024269  0.54309830  0.91686451    -0.00100
H397        H  0.61513648  0.54250713  0.84391039     0.13600
H398        H  0.62627933  0.62302747  0.88554107     0.13700
In399      In  0.64034805  0.64005501  0.99241300     1.36900
C400        C  0.69169595  0.64777034  0.01535821     0.78400
O401        O  0.64224717  0.55091575  0.97094371    -0.60000
O402        O  0.62819425  0.63320232  0.94258507    -0.50900
C403        C  0.61006178  0.59378878  0.01692732     0.71100
O404        O  0.63707842  0.57647778  0.52449991    -0.45800
C405        C  0.62689866  0.75836900  0.99423052     0.75800
O406        O  0.67815279  0.66543470  0.48460083    -0.57700
O407        O  0.62012660  0.73285887  0.96952266    -0.47700
O408        O  0.68113456  0.61631321  0.02893188    -0.54100
C409        C  0.63362539  0.57588970  0.94432929     0.86000
O410        O  0.60097742  0.62873345  0.99279294    -0.56000
O411        O  0.63911196  0.72274008  0.01775250    -0.59300
In412      In  0.92555827  0.81571977  0.57941716     1.36900
C413        C  0.87395379  0.81163808  0.55683664     0.78400
O414        O  0.93217417  0.73194435  0.55607968    -0.60000
O415        O  0.93839833  0.72075135  0.60257270    -0.50900
C416        C  0.95158625  0.87389137  0.55272471     0.71100
O417        O  0.92703121  0.88438415  0.54442403    -0.45800
C418        C  0.93901353  0.87136709  0.63077822     0.75800
O419        O  0.88841485  0.79797442  0.58441011    -0.57700
O420        O  0.94820885  0.81776941  0.62893908    -0.47700
O421        O  0.88556706  0.83147168  0.54110214    -0.54100
C422        C  0.93787649  0.69543024  0.57918315     0.86000
O423        O  0.96271575  0.83336164  0.57446983    -0.56000
O424        O  0.92287648  0.89811430  0.60590908    -0.59300
In425      In  0.64330973  0.33874014  0.97690592     1.36900
C426        C  0.69838738  0.30927587  0.49644718     0.78400
O427        O  0.63897675  0.24393831  0.99099415    -0.60000
O428        O  0.62340257  0.27070216  0.94379536    -0.50900
C429        C  0.62177070  0.36512364  0.51214585     0.71100
O430        O  0.64599170  0.34707314  0.52158564    -0.45800
C431        C  0.63246202  0.43272083  0.93541780     0.75800
O432        O  0.68676896  0.35488186  0.50315178    -0.57700
O433        O  0.62518989  0.38083462  0.92864259    -0.47700
O434        O  0.68103165  0.29187942  0.97554644    -0.54100
C435        C  0.62727889  0.22903497  0.96433815     0.86000
O436        O  0.60707441  0.37989909  0.98341453    -0.56000
O437        O  0.64542577  0.43614259  0.96333041    -0.59300
In438      In  0.94717951  0.10131918  0.60953202     1.35100
C439        C  0.89579714  0.11518954  0.57580149     0.78400
O440        O  0.94865286  0.99996325  0.62011742    -0.60000
O441        O  0.95313683  0.05878279  0.65552445    -0.50900
C442        C  0.98880349  0.08160032  0.59523068     0.71100
O443        O  0.96569147  0.08034804  0.57590886    -0.45800
C444        C  0.95143618  0.21903105  0.61891412     0.75800
O445        O  0.91228431  0.09040381  0.56615514    -0.57700
O446        O  0.95603618  0.17884543  0.64042453    -0.47700
O447        O  0.90563522  0.12996455  0.60276188    -0.54100
C448        C  0.95204507  0.00473816  0.64752689     0.86000
O449        O  0.99049093  0.09025948  0.62177815    -0.56000
O450        O  0.94493959  0.19867901  0.59301739    -0.59300
N451        N  0.95365826  0.95316108  0.66790701    -0.02600
C452        C  0.96320222  0.95111481  0.69881592     0.00000
C453        C  0.96023487  0.89505894  0.71042193    -0.22900
C454        C  0.94957729  0.86102287  0.68618161    -0.23100
C455        C  0.94592706  0.89715953  0.66045287    -0.00100
H456        H  0.96729804  0.87783697  0.73398248     0.13600
H457        H  0.94627570  0.81355473  0.68733573     0.13700
N458        N  0.12481588  0.12239049  0.90637443    -0.02600
C459        C  0.11278149  0.12441171  0.87553478     0.00000
C460        C  0.11632074  0.17831519  0.86260581    -0.22900
C461        C  0.13017493  0.21115257  0.88604212    -0.23100
C462        C  0.13487853  0.17670527  0.91267000    -0.00100
H463        H  0.10773437  0.19517915  0.83891087     0.13600
H464        H  0.13450762  0.25750462  0.88388601     0.13700
In465      In  0.43253676  0.67559927  0.62245010     1.36900
C466        C  0.38099350  0.70072045  0.58919672     0.78400
O467        O  0.44886273  0.58311847  0.64865335    -0.60000
O468        O  0.42280598  0.64145256  0.66111756    -0.50900
C469        C  0.46105273  0.63661841  0.59145860     0.71100
O470        O  0.43629637  0.64341276  0.58005477    -0.45800
C471        C  0.45072268  0.78041829  0.64296563     0.75800
O472        O  0.39338142  0.64867465  0.59087523    -0.57700
O473        O  0.45077729  0.73614237  0.66040803    -0.47700
O474        O  0.39501887  0.73943470  0.60398071    -0.54100
C475        C  0.43692272  0.59075024  0.66607498     0.86000
O476        O  0.47120397  0.64971312  0.61870325    -0.56000
O477        O  0.44216275  0.77032376  0.61522044    -0.59300
In478      In  0.13518220  0.97425359  0.96687572     1.36900
C479        C  0.12737074  0.07101266  0.92743469     0.78400
O480        O  0.09402314  0.98647832  0.96539022    -0.60000
O481        O  0.12651707  0.98040279  0.50265584    -0.50900
C482        C  0.12652436  0.85859393  0.95697715     0.71100
O483        O  0.11963455  0.89987682  0.93542203    -0.45800
C484        C  0.18751056  0.95262294  0.99407397     0.75800
O485        O  0.12353873  0.01776032  0.91922068    -0.57700
O486        O  0.17405260  0.96059662  0.50429584    -0.47700
O487        O  0.13462537  0.07468606  0.95562352    -0.54100
C488        C  0.10114626  0.99388936  0.99334229     0.86000
O489        O  0.13756262  0.87692943  0.98305872    -0.56000
O490        O  0.17466471  0.93743726  0.96775509    -0.59300
In491      In  0.44969006  0.37009878  0.63165016     1.36900
C492        C  0.39808197  0.36499134  0.60431893     0.78400
O493        O  0.45874326  0.28347650  0.61285829    -0.60000
O494        O  0.46224130  0.27672910  0.65857731    -0.50900
C495        C  0.47946355  0.41093637  0.60465062     0.71100
O496        O  0.45472942  0.42026106  0.59305491    -0.45800
C497        C  0.45408979  0.44830796  0.67434506     0.75800
O498        O  0.41120715  0.38719337  0.59103673    -0.57700
O499        O  0.46550350  0.39411948  0.68069932    -0.47700
O500        O  0.41112403  0.34738528  0.63188137    -0.54100
C501        C  0.46344589  0.24910517  0.63633958     0.86000
O502        O  0.48911745  0.38306148  0.63084687    -0.56000
O503        O  0.44152905  0.46261285  0.64637440    -0.59300
In504      In  0.15327657  0.25993407  0.99309504     1.36900
C505        C  0.20738605  0.24030393  0.52616749     0.78400
O506        O  0.15354881  0.17553451  0.96769249    -0.60000
O507        O  0.13987653  0.26198593  0.94284611    -0.50900
C508        C  0.11776546  0.20705901  0.50526055     0.71100
O509        O  0.14149548  0.18439135  0.51882991    -0.45800
C510        C  0.14488131  0.38058730  0.99578470     0.75800
O511        O  0.19140112  0.22207095  0.53643518    -0.57700
O512        O  0.14272791  0.35645112  0.97152981    -0.47700
O513        O  0.19387468  0.26811450  0.99591167    -0.54100
C514        C  0.14331965  0.20478776  0.94198318     0.86000
O515        O  0.11135241  0.26317534  0.98709496    -0.56000
O516        O  0.15161155  0.33498491  0.51406852    -0.59300
C517        C  0.27738618  0.28630318  0.55265830     0.19500
C518        C  0.28618020  0.33761240  0.54318506    -0.18600
C519        C  0.31167129  0.35159360  0.55884380    -0.10800
C520        C  0.32929156  0.31372764  0.58418713     0.21800
C521        C  0.32041512  0.26272230  0.59398044    -0.20200
C522        C  0.29473281  0.24892460  0.57836385    -0.11000
C523        C  0.35694287  0.32589586  0.60082872    -0.15200
C524        C  0.36994571  0.35882505  0.58832005    -0.29000
C525        C  0.25017763  0.27362379  0.53447369    -0.03300
C526        C  0.23550117  0.24222304  0.54512095    -0.39800
H527        H  0.27314607  0.36747329  0.52361337     0.12900
H528        H  0.31729857  0.39240772  0.55106549     0.12600
H529        H  0.33354212  0.23286184  0.61349024     0.12000
H530        H  0.28876142  0.20853445  0.58608742     0.12200
H531        H  0.36751578  0.30370614  0.62357280     0.15000
H532        H  0.36047890  0.37834598  0.56501324     0.13800
H533        H  0.23913234  0.29387113  0.00526721     0.11400
H534        H  0.24335415  0.22247538  0.56842657     0.13400
C535        C  0.12895798  0.68476077  0.97459110     0.19500
C536        C  0.14236629  0.64701191  0.00153828    -0.18600
C537        C  0.14360164  0.58336636  0.00153453    -0.10800
C538        C  0.13109684  0.55551231  0.97447773     0.21800
C539        C  0.11724498  0.59323518  0.94753796    -0.20200
C540        C  0.11605592  0.65717294  0.94753567    -0.11000
C541        C  0.13344103  0.48766632  0.97315233    -0.15200
C542        C  0.14079370  0.44739362  0.99769422    -0.29000
C543        C  0.12963301  0.75206750  0.97623556    -0.03300
C544        C  0.12250720  0.79369535  0.95225652    -0.39800
H545        H  0.11450712  0.65767723  0.50257840     0.12900
H546        H  0.15510757  0.55651694  0.02268580     0.12600
H547        H  0.10746180  0.57311640  0.92633125     0.12000
H548        H  0.10512150  0.68436320  0.92633095     0.12200
H549        H  0.12906433  0.47012762  0.95096871     0.15000
H550        H  0.14410964  0.46308984  0.01996027     0.13800
H551        H  0.13777399  0.76799396  0.99890752     0.11400
H552        H  0.11462020  0.78043365  0.92913468     0.13400
C553        C  0.47011587  0.07383196  0.65461560     0.19500
C554        C  0.46123050  0.03690907  0.67228074    -0.18600
C555        C  0.45896375  0.97489503  0.66729616    -0.10800
C556        C  0.46564201  0.94838788  0.64449783     0.21800
C557        C  0.47563989  0.98448234  0.62784766    -0.20200
C558        C  0.47824105  0.04604058  0.63308176    -0.11000
C559        C  0.46029162  0.88542745  0.63549251    -0.15200
C560        C  0.45900148  0.83990467  0.65416286    -0.29000
C561        C  0.46925583  0.14129358  0.65805581    -0.03300
C562        C  0.46886797  0.18207980  0.63619881    -0.39800
H563        H  0.45500377  0.05668266  0.68917200     0.12900
H564        H  0.45080662  0.94882725  0.68030781     0.12600
H565        H  0.48114617  0.96512670  0.61034039     0.12000
H566        H  0.48632096  0.07145831  0.61980693     0.12200
H567        H  0.45710356  0.87635008  0.61220779     0.15000
H568        H  0.46343654  0.84657457  0.67792963     0.13800
H569        H  0.46644132  0.15827676  0.67777414     0.11400
H570        H  0.47003819  0.16650017  0.61549149     0.13400
C571        C  0.25766747  0.83701159  0.52344051     0.19500
C572        C  0.26790817  0.78061602  0.51709928    -0.18600
C573        C  0.29434695  0.75729451  0.53301497    -0.10800
C574        C  0.31118561  0.79018590  0.55570483     0.21800
C575        C  0.30083132  0.84619970  0.56216856    -0.20200
C576        C  0.27450919  0.86949111  0.54628380    -0.11000
C577        C  0.33979274  0.77014994  0.57245481    -0.15200
C578        C  0.35240666  0.71518618  0.57156757    -0.29000
C579        C  0.22973977  0.86128910  0.50497913    -0.03300
C580        C  0.21617319  0.93538683  0.01022036    -0.39800
H581        H  0.25545100  0.75472501  0.49951154     0.12900
H582        H  0.30143072  0.71437562  0.52692240     0.12600
H583        H  0.31332260  0.87280537  0.57935351     0.12000
H584        H  0.26784937  0.91371256  0.55156016     0.12200
H585        H  0.35122449  0.80299818  0.58671102     0.15000
H586        H  0.34195230  0.67997258  0.55846688     0.13800
H587        H  0.21960077  0.83910788  0.48442725     0.11400
H588        H  0.22609072  0.95552423  0.03142685     0.13400
C589        C  0.06024574  0.05781439  0.80841842     0.19500
C590        C  0.05583709  0.05275329  0.77771895    -0.18600
C591        C  0.03307844  0.03142032  0.75780944    -0.10800
C592        C  0.01392211  0.01525306  0.76812082     0.21800
C593        C  0.01837032  0.01983010  0.79888416    -0.20200
C594        C  0.04117742  0.04129228  0.81884201    -0.11000
C595        C  0.99048709  0.98785788  0.74824549    -0.15200
C596        C  0.98099861  0.99346267  0.71760774    -0.29000
C597        C  0.08383031  0.08537347  0.82782283    -0.03300
C598        C  0.09316249  0.08387234  0.85839043    -0.39800
H599        H  0.07013749  0.06534266  0.76904799     0.12900
H600        H  0.03098926  0.02641327  0.73461802     0.12600
H601        H  0.00407894  0.00692227  0.80749395     0.12000
H602        H  0.04340630  0.04591671  0.84209826     0.12200
H603        H  0.98161723  0.95931646  0.75955373     0.15000
H604        H  0.98860465  0.02506718  0.70622721     0.13800
H605        H  0.09351982  0.10996848  0.81599024     0.11400
H606        H  0.08490640  0.05652245  0.87084679     0.13400
C607        C  0.03354658  0.08750335  0.55110034     0.19500
C608        C  0.02881136  0.11663342  0.52264579    -0.18600
C609        C  0.04960692  0.13176703  0.51535378    -0.10800
C610        C  0.07575105  0.11806413  0.53647523     0.21800
C611        C  0.08056553  0.08515514  0.56411709    -0.20200
C612        C  0.05972624  0.07008444  0.57144249    -0.11000
C613        C  0.09830055  0.13734380  0.53035198    -0.15200
C614        C  0.09573593  0.18609832  0.51126698    -0.29000
C615        C  0.01071701  0.07857801  0.55905048    -0.03300
C616        C  0.01226561  0.07659141  0.58781740    -0.39800
H617        H  0.00888098  0.12923722  0.50625428     0.12900
H618        H  0.04503099  0.15420442  0.49314883     0.12600
H619        H  0.10051086  0.07237151  0.58042375     0.12000
H620        H  0.06423196  0.04513574  0.59306550     0.12200
H621        H  0.11768806  0.11259716  0.54289861     0.15000
H622        H  0.07674026  0.21292819  0.49955146     0.13800
H623        H  0.99151548  0.08077279  0.54057612     0.11400
H624        H  0.03097459  0.07803193  0.60656814     0.13400
C625        C  0.53746201  0.41350094  0.57926524     0.19500
C626        C  0.56316422  0.38305523  0.59123062    -0.18600
C627        C  0.57843242  0.37938752  0.57385878    -0.10800
C628        C  0.56843007  0.40668179  0.54392916     0.21800
C629        C  0.54300501  0.43857340  0.53220649    -0.20200
C630        C  0.52772016  0.44236268  0.54961703    -0.11000
C631        C  0.58289028  0.39873505  0.52347115    -0.15200
C632        C  0.60880582  0.38000749  0.53324582    -0.29000
C633        C  0.52130923  0.40976743  0.59786118    -0.03300
C634        C  0.49535378  0.42830512  0.58770850    -0.39800
H635        H  0.57123685  0.36008644  0.61387683     0.12900
H636        H  0.59760145  0.35299158  0.58371824     0.12600
H637        H  0.52649963  0.43185233  0.00312091     0.12000
H638        H  0.50825932  0.46715510  0.53936133     0.12200
H639        H  0.56879856  0.42694028  0.99779849     0.15000
H640        H  0.62100278  0.37362450  0.55733079     0.13800
H641        H  0.53087788  0.38569639  0.62031095     0.11400
H642        H  0.48474259  0.45163936  0.56535399     0.13400
C643        C  0.82281903  0.18279662  0.54964468     0.19500
C644        C  0.80994895  0.22236671  0.56328064    -0.18600
C645        C  0.78316501  0.24263189  0.54872824    -0.10800
C646        C  0.76840528  0.22407721  0.51987448     0.21800
C647        C  0.78109165  0.18370950  0.50631352    -0.20200
C648        C  0.80804068  0.16346201  0.52089605    -0.11000
C649        C  0.73959817  0.24333349  0.50423792    -0.15200
C650        C  0.72727597  0.29452090  0.50984267    -0.29000
C651        C  0.85146703  0.16343493  0.56674466    -0.03300
C652        C  0.86733046  0.12792931  0.55691146    -0.39800
H653        H  0.82066767  0.23760000  0.58552304     0.12900
H654        H  0.77407349  0.27174601  0.56056276     0.12600
H655        H  0.77011470  0.16793797  0.48429098     0.12000
H656        H  0.81696738  0.13262330  0.50957886     0.12200
H657        H  0.72810523  0.21410257  0.48757447     0.15000
H658        H  0.73841022  0.32589683  0.52534591     0.13800
H659        H  0.86024538  0.18089163  0.58899432     0.11400
H660        H  0.85995902  0.11025246  0.53468408     0.13400
C661        C  0.04169729  0.96299815  0.50636302     0.19500
C662        C  0.01433861  0.97152438  0.49057991    -0.18600
C663        C  0.99783891  0.95318636  0.50429659    -0.10800
C664        C  0.00848114  0.92541084  0.53419571     0.21800
C665        C  0.03581990  0.91844802  0.55018799    -0.20200
C666        C  0.05226159  0.93670742  0.53649003    -0.11000
C667        C  0.99235751  0.89869824  0.54893593    -0.15200
C668        C  0.96595821  0.90618353  0.53782444    -0.29000
C669        C  0.05775965  0.98599876  0.99517894    -0.03300
C670        C  0.08400306  0.98415334  0.50392642    -0.39800
H671        H  0.00474008  0.99686492  0.97197555     0.12900
H672        H  0.97696902  0.95894129  0.49086896     0.12600
H673        H  0.04460873  0.89701244  0.57315788     0.12000
H674        H  0.07323040  0.92762868  0.54924378     0.12200
H675        H  0.00291604  0.87006417  0.56997371     0.15000
H676        H  0.95446041  0.93609375  0.51762243     0.13800
H677        H  0.04938091  0.98692981  0.97051751     0.11400
H678        H  0.09244033  0.98831546  0.52823407     0.13400
C679        C  0.94826010  0.52173278  0.60221180     0.19500
C680        C  0.94427653  0.48740951  0.62501049    -0.18600
C681        C  0.94533393  0.42358260  0.62522095    -0.10800
C682        C  0.95059965  0.39253604  0.60261441     0.21800
C683        C  0.95508660  0.42669971  0.58018536    -0.20200
C684        C  0.95414100  0.49040940  0.58004895    -0.11000
C685        C  0.95008248  0.32540362  0.60037372    -0.15200
C686        C  0.95318260  0.28475822  0.62355774    -0.29000
C687        C  0.94586652  0.58975214  0.60239610    -0.03300
C688        C  0.94268584  0.62844798  0.57844495    -0.39800
H689        H  0.93976437  0.51021283  0.64241380     0.12900
H690        H  0.94124831  0.39920360  0.64256234     0.12600
H691        H  0.95925818  0.40395627  0.56255010     0.12000
H692        H  0.95808245  0.51448862  0.56253953     0.12200
H693        H  0.94735320  0.30846943  0.57839863     0.15000
H694        H  0.95720491  0.29929543  0.64619125     0.13800
H695        H  0.94529129  0.60900305  0.62278414     0.11400
H696        H  0.94195394  0.61140559  0.55719570     0.13400
C697        C  0.51955634  0.59738518  0.56808403     0.19500
C698        C  0.54662329  0.57943042  0.58369065    -0.18600
C699        C  0.56331575  0.57377894  0.56802348    -0.10800
C700        C  0.55321389  0.58623759  0.53624129     0.21800
C701        C  0.52606327  0.60228755  0.52061761    -0.20200
C702        C  0.50942450  0.60795496  0.53623350    -0.11000
C703        C  0.56723430  0.58791458  0.01993372    -0.15200
C704        C  0.59607827  0.57055742  0.52966564    -0.29000
C705        C  0.50305551  0.60984805  0.58592838    -0.03300
C706        C  0.47661137  0.61639249  0.57381900    -0.39800
H707        H  0.55500480  0.57127449  0.60821749     0.12900
H708        H  0.58410950  0.56213771  0.58113904     0.12600
H709        H  0.51489490  0.58579004  0.99601658     0.12000
H710        H  0.48888877  0.62325627  0.52319454     0.12200
H711        H  0.55796661  0.61000237  0.99701885     0.15000
H712        H  0.60592590  0.54481339  0.55156373     0.13800
H713        H  0.51316396  0.61568378  0.60998374     0.11400
H714        H  0.46581667  0.60826359  0.55028076     0.13400
C715        C  0.61835405  0.05974413  0.97641173     0.19500
C716        C  0.61536906  0.01943444  0.49538893    -0.18600
C717        C  0.61708852  0.96137229  0.00029587    -0.10800
C718        C  0.61406520  0.93273417  0.97345924     0.21800
C719        C  0.61208954  0.96905021  0.94777073    -0.20200
C720        C  0.61427063  0.03181211  0.94916630    -0.11000
C721        C  0.61402936  0.86523083  0.97161149    -0.15200
C722        C  0.62243619  0.82484947  0.99617582    -0.29000
C723        C  0.62336861  0.12467296  0.98039669    -0.03300
C724        C  0.61937033  0.16732353  0.95771245    -0.39800
H725        H  0.61418046  0.04018772  0.51509564     0.12900
H726        H  0.61100425  0.93098974  0.51122734     0.12600
H727        H  0.60966003  0.94843026  0.92675629     0.12000
H728        H  0.61364696  0.05735373  0.92917570     0.12200
H729        H  0.60898277  0.84776092  0.94932613     0.15000
H730        H  0.62886297  0.84018014  0.01888518     0.13800
H731        H  0.62950326  0.13323693  0.50077400     0.11400
H732        H  0.61070725  0.15723001  0.93411719     0.13400
C733        C  0.75805103  0.71060054  0.52358695     0.19500
C734        C  0.76472773  0.75411318  0.50655218    -0.18600
C735        C  0.78962308  0.77373070  0.51759832    -0.10800
C736        C  0.80863656  0.75000051  0.54611679     0.21800
C737        C  0.80194697  0.70665353  0.56322612    -0.20200
C738        C  0.77701180  0.68709385  0.55219297    -0.11000
C739        C  0.83560395  0.76849019  0.55901499    -0.15200
C740        C  0.84601739  0.80225338  0.54355196    -0.29000
C741        C  0.73092563  0.69298734  0.51070711    -0.03300
C742        C  0.72158871  0.65123245  0.52382967    -0.39800
H743        H  0.75051618  0.77344403  0.48455522     0.12900
H744        H  0.79352770  0.80785134  0.50369721     0.12600
H745        H  0.81612880  0.68763417  0.58529700     0.12000
H746        H  0.77289285  0.65397184  0.56636771     0.12200
H747        H  0.84804573  0.75067551  0.58213881     0.15000
H748        H  0.83489784  0.81909674  0.52008025     0.13800
H749        H  0.71757777  0.71713458  0.48927017     0.11400
H750        H  0.73383212  0.62603104  0.54527605     0.13400
C751        C  0.52258403  0.39473027  0.77825949     0.19500
C752        C  0.54802296  0.39407370  0.77888433    -0.18600
C753        C  0.56966776  0.39376338  0.80640193    -0.10800
C754        C  0.56627692  0.39432485  0.83412076     0.21800
C755        C  0.54126386  0.38831145  0.83366818    -0.20200
C756        C  0.51964361  0.38851154  0.80615459    -0.11000
C757        C  0.58635156  0.41315817  0.86254931    -0.15200
C758        C  0.61025966  0.42573358  0.86521683    -0.29000
C759        C  0.49997652  0.41436107  0.74890106    -0.03300
C760        C  0.47471539  0.41914331  0.74554042    -0.39800
H761        H  0.55096418  0.39852635  0.75784363     0.12900
H762        H  0.58841982  0.39778904  0.80523374     0.12600
H763        H  0.53800163  0.38830208  0.85457161     0.12000
H764        H  0.50061108  0.38875724  0.80720212     0.12200
H765        H  0.57930322  0.42888601  0.87965227     0.15000
H766        H  0.61791351  0.41269134  0.84838287     0.13800
H767        H  0.50454471  0.43684689  0.73128538     0.11400
H768        H  0.46932415  0.39833593  0.76275172     0.13400
loop_ 
_geom_bond_atom_site_label_1 
_geom_bond_atom_site_label_2 
_geom_bond_distance 
_geom_bond_site_symmetry_2 
_ccdc_geom_bond_type 
N1            C5   1.364       .  A
N1            C2   1.359       .  A
N1          C113   1.443       .  S
C2            C3   1.380       .  A
C2          C376   1.479       .  S
C3            C4   1.372       .  A
C3            H6   1.082       .  S
C4            C5   1.382       .  A
C4            H7   1.082       .  S
C5           C91   1.482       .  S
N8           C12   1.366       .  A
N8            C9   1.361       .  A
N8           C47   1.445       .  S
C9           C10   1.379       .  A
C9          C374   1.478       .  S
C10          C11   1.370       .  A
C10          H13   1.082       .  S
C11          C12   1.382       .  A
C11          H14   1.082       .  S
C12          C25   1.481       .  S
In15         O17   2.265       .  S
In15         O18   2.239       .  S
In15         O26   2.241       .  S
In15         O23   2.261       .  S
In15         O24   2.259       .  S
In15         O27   2.240       .  S
In15        O404   2.257       .  S
In15        O406   2.233       .  S
C16         C742   1.476       .  S
C16          O24   1.263       .  A
C16         O406   1.259       .  A
O17          C25   1.259       .  A
O18          C25   1.261       .  A
C19         C704   1.478       .  S
C19          O26   1.262       .  A
C19         O404   1.262       .  A
O20        In399   2.250   1_554  S
O20         C403   1.263       .  A
C21         C338   1.477       .  S
C21          O23   1.264       .  A
C21          O27   1.260       .  A
O22        In399   2.234       .  S
O22         C400   1.258   1_556  A
In28         O30   2.259       .  S
In28         O31   2.255       .  S
In28         O39   2.257       .  S
In28         O33   2.262       .  S
In28         O35   2.254       .  S
In28         O36   2.218       .  S
In28         O37   2.255       .  S
In28         O40   2.274       .  S
C29         C356   1.476       .  S
C29          O35   1.259       .  A
C29          O37   1.259       .  A
O30          C38   1.260       .  A
O31          C38   1.259       .  A
C32         C284   1.482       .  S
C32          O39   1.261       .  A
C32          O33   1.260       .  A
C34          C71   1.474       .  S
C34          O36   1.259       .  A
C34          O40   1.261       .  A
C38         C304   1.478       .  S
In41         O43   2.242       .  S
In41         O44   2.258       .  S
In41         O52   2.259       .  S
In41         O49   2.267       .  S
In41         O50   2.266       .  S
In41         O53   2.250       .  S
In41        O430   2.249       .  S
In41        O432   2.268       .  S
C42         C266   1.478   1_556  S
C42          O48   1.258   1_556  A
C42         O434   1.260       .  A
O43          C51   1.261       .  A
O44          C51   1.262       .  A
C45         C248   1.472       .  S
C45          O46   1.257       .  A
C45         O436   1.261   1_554  A
O46        In425   2.239   1_554  S
C47          O49   1.260       .  A
C47          O53   1.256       .  A
O48        In425   2.249   1_554  S
O50         C426   1.256       .  A
C51         C340   1.478       .  S
O52         C429   1.263       .  A
In54         O56   2.261       .  S
In54         O57   2.246       .  S
In54         O65   2.242       .  S
In54         O59   2.261       .  S
In54         O61   2.273       .  S
In54         O62   2.270       .  S
In54         O63   2.238       .  S
In54         O66   2.228       .  S
C55         C268   1.483       .  S
C55          O61   1.263       .  A
C55          O63   1.260       .  A
O56          C64   1.261       .  A
O57          C64   1.262       .  A
C58         C232   1.478   1_655  S
C58          O65   1.260       .  A
C58          O59   1.264       .  A
C60         C302   1.480       .  S
C60          O62   1.264       .  A
C60          O66   1.260       .  A
C64          N67   1.445   1_545  S
N67          C71   1.361       .  A
N67          C68   1.362       .  A
C68          C69   1.387       .  A
C68         C212   1.489       .  S
C69          C70   1.369       .  A
C69          H72   1.081       .  S
C70          C71   1.380       .  A
C70          H73   1.083       .  S
N74          C78   1.365       .  A
N74          C75   1.361       .  A
N74          C95   1.449       .  S
C75          C76   1.386       .  A
C75         C214   1.489       .  S
C76          C77   1.371       .  A
C76          H79   1.081       .  S
C77          C78   1.382       .  A
C77          H80   1.083       .  S
C78         C130   1.481       .  S
In81         O83   2.279       .  S
In81         O84   2.244       .  S
In81         O92   2.246       .  S
In81         O86   2.251       .  S
In81         O88   2.275       .  S
In81         O89   2.262       .  S
In81         O90   2.252       .  S
In81         O93   2.257       .  S
C82         C194   1.480       .  S
C82          O88   1.260       .  A
C82          O90   1.256       .  A
O83          C91   1.258       .  A
O84          C91   1.260       .  A
C85         C322   1.477       .  S
C85          O92   1.262       .  A
C85          O86   1.262       .  A
C87         C176   1.481       .  S
C87          O89   1.260       .  A
C87          O93   1.261       .  A
In94         O96   2.253       .  S
In94        O105   2.228       .  S
In94         O99   2.265       .  S
In94        O101   2.261   1_565  S
In94        O103   2.256   1_565  S
In94        O106   2.249       .  S
In94        O481   2.238       .  S
In94        O486   2.250       .  S
C95         O101   1.261       .  A
C95         O103   1.256       .  A
O96         C104   1.262       .  A
O97        In478   2.252   1_554  S
O97         C488   1.261   1_554  A
C98         C160   1.479       .  S
C98         O105   1.261       .  A
C98          O99   1.265       .  A
C100        C196   1.474       .  S
C100        O106   1.259       .  A
C100        O486   1.260       .  A
O102       In478   2.263   1_554  S
O102        C484   1.262   1_554  A
C104        C670   1.472       .  S
C104        O481   1.259       .  A
In107       O109   2.237       .  S
In107       O110   2.279       .  S
In107       O118   2.253       .  S
In107       O112   2.230       .  S
In107       O114   2.244       .  S
In107       O115   2.268       .  S
In107       O116   2.251       .  S
In107       O119   2.245       .  S
C108        C140   1.473       .  S
C108        O114   1.259       .  A
C108        O116   1.260       .  A
O109        C117   1.258       .  A
O110        C117   1.264       .  A
C111        C250   1.472       .  S
C111        O118   1.265       .  A
C111        O112   1.259       .  A
C113        O115   1.263       .  A
C113        O119   1.257       .  A
C117        C178   1.479       .  S
In120       O122   2.262       .  S
In120       O123   2.234       .  S
In120       O131   2.233       .  S
In120       O128   2.255       .  S
In120       O129   2.235       .  S
In120       O509   2.269       .  S
In120       O511   2.275       .  S
In120       O516   2.250       .  S
C121        C142   1.478       .  S
C121        O127   1.262       .  A
C121        O513   1.259   1_554  A
O122        C130   1.258       .  A
O123        C130   1.259       .  A
C124        C230   1.478       .  S
C124        O125   1.264       .  A
C124        O515   1.257   1_554  A
O125       In504   2.281   1_554  S
C126        C158   1.477       .  S
C126        O128   1.262       .  A
C126        O516   1.261       .  A
O127       In504   2.266   1_554  S
O129        C505   1.258       .  A
O131        C508   1.259       .  A
O132       In504   2.252   1_554  S
O132        C510   1.262   1_554  A
C133        C134   1.403       .  A
C133        C138   1.406       .  A
C133        C141   1.487       .  S
C134        C135   1.396       .  A
C134        H143   1.084       .  S
C135        C136   1.408       .  A
C135        H144   1.080       .  S
C136        C137   1.406       .  A
C136        C139   1.490       .  S
C137        C138   1.401       .  A
C137        H145   1.083       .  S
C138        H146   1.082       .  S
C139        H147   1.087       .  S
C139        C140   1.347       .  D
C140        H148   1.083       .  S
C141        H533   1.087       .  S
C141        C142   1.348       .  D
C142        H150   1.084       .  S
H149        C525   1.087       .  S
C151        C152   1.404       .  A
C151        C156   1.407       .  A
C151        C159   1.488       .  S
C152        C153   1.398       .  A
C152        H545   1.083       .  S
C153        C154   1.407       .  A
C153        H162   1.081       .  S
C154        C155   1.406       .  A
C154        C157   1.492       .  S
C155        C156   1.402       .  A
C155        H163   1.083       .  S
C156        H164   1.082       .  S
C157        H165   1.087       .  S
C157        C158   1.348       .  D
C158        H166   1.084       .  S
C159        H167   1.087       .  S
C159        C160   1.348       .  D
C160        H168   1.085       .  S
H161        C536   1.084       .  S
C169        C170   1.405       .  A
C169        C174   1.409       .  A
C169        C177   1.497       .  S
C170        C171   1.403   1_545  A
C170        H179   1.083       .  S
C171        C172   1.409       .  A
C171        H180   1.081       .  S
C172        C173   1.404       .  A
C172        C175   1.493       .  S
C173        C174   1.399   1_565  A
C173        H181   1.083       .  S
C174        H182   1.081       .  S
C175        H183   1.087       .  S
C175        C176   1.348       .  D
C176        H184   1.084       .  S
C177        H185   1.087       .  S
C177        C178   1.348       .  D
C178        H186   1.083       .  S
C187        C188   1.405       .  A
C187        C192   1.406       .  A
C187        C195   1.490       .  S
C188        C189   1.400       .  A
C188        H197   1.083   1_554  S
C189        C190   1.407       .  A
C189        H198   1.081       .  S
C190        C191   1.406       .  A
C190        C193   1.491       .  S
C191        C192   1.401       .  A
C191        H199   1.083       .  S
C192        H200   1.082       .  S
C193        H201   1.087       .  S
C193        C194   1.350       .  D
C194        H202   1.084       .  S
C195        H203   1.087   1_554  S
C195        C580   1.349       .  D
C196        H204   1.083       .  S
C196        C579   1.348       .  D
C205        C206   1.406       .  A
C205        C210   1.407       .  A
C205        C213   1.489       .  S
C206        C207   1.400       .  A
C206        H215   1.084       .  S
C207        C208   1.406       .  A
C207        H216   1.081       .  S
C208        C209   1.404   1_545  A
C208        C211   1.487   1_445  S
C209        C210   1.396   1_565  A
C209        H217   1.084       .  S
C210        H218   1.080   1_545  S
C211        H219   1.085       .  S
C211        C212   1.349       .  D
C212        H220   1.083   1_565  S
C213        H221   1.084       .  S
C213        C214   1.350       .  D
C214        H222   1.080       .  S
C223        C224   1.403       .  A
C223        C228   1.408       .  A
C223        C231   1.492       .  S
C224        C225   1.399       .  A
C224        H233   1.083       .  S
C225        C226   1.410       .  A
C225        H234   1.080   1_554  S
C226        C227   1.405       .  A
C226        C229   1.496       .  S
C227        C228   1.402       .  A
C227        H235   1.083       .  S
C228        H236   1.081       .  S
C229        H237   1.087       .  S
C229        C230   1.347       .  D
C230        H238   1.083       .  S
C231        H239   1.087   1_455  S
C231        C232   1.346       .  D
C232        H240   1.084       .  S
C241        C242   1.402       .  A
C241        C246   1.409       .  A
C241        C249   1.487       .  S
C242        C243   1.398       .  A
C242        H251   1.083       .  S
C243        C244   1.409       .  A
C243        H252   1.080       .  S
C244        C245   1.402       .  A
C244        C247   1.489       .  S
C245        C246   1.398       .  A
C245        H637   1.083       .  S
C246        H254   1.081       .  S
C247        H639   1.087   1_554  S
C247        C248   1.345       .  D
C248        H256   1.083       .  S
C249        H257   1.087       .  S
C249        C250   1.343       .  D
C250        H258   1.084       .  S
H253        C629   1.083       .  S
H255        C631   1.087       .  S
C259        C260   1.404       .  A
C259        C264   1.409       .  A
C259        C267   1.494       .  S
C260        C261   1.397       .  A
C260        H269   1.084       .  S
C261        C262   1.408       .  A
C261        H270   1.079       .  S
C262        C263   1.408       .  A
C262        C265   1.497       .  S
C263        C264   1.405       .  A
C263        H271   1.083   1_554  S
C264        H272   1.080       .  S
C265        H273   1.087   1_554  S
C265        C266   1.350       .  D
C266        H274   1.082       .  S
C267        H275   1.087       .  S
C267        C268   1.350       .  D
C268        H276   1.083       .  S
C277        C278   1.405   1_554  A
C277        C282   1.407       .  A
C277        C669   1.492   1_554  S
C278        C279   1.403   1_456  A
C278        H671   1.083       .  S
C279        C280   1.409   1_655  A
C279        H288   1.080   1_554  S
C280        C281   1.405       .  A
C280        C283   1.494   1_455  S
C281        C282   1.399       .  A
C281        H289   1.083       .  S
C282        H290   1.081       .  S
C283        H291   1.087   1_655  S
C283        C284   1.348       .  D
C284        H292   1.084       .  S
C285        C661   1.487       .  S
C285        H293   1.087       .  S
C285        C670   1.344       .  D
C286        C488   1.477   1_554  S
C286        H294   1.084       .  S
C286        C669   1.348   1_554  D
H287        C662   1.083       .  S
C295        C296   1.407       .  A
C295        C300   1.406       .  A
C295        C303   1.493       .  S
C296        C297   1.402       .  A
C296        H305   1.083       .  S
C297        C298   1.408       .  A
C297        H306   1.080       .  S
C298        C299   1.405       .  A
C298        C301   1.491       .  S
C299        C300   1.397       .  A
C299        H307   1.084       .  S
C300        H308   1.080       .  S
C301        H309   1.087       .  S
C301        C302   1.349       .  D
C302        H310   1.083       .  S
C303        H311   1.087       .  S
C303        C304   1.350       .  D
C304        H312   1.083       .  S
C313        C314   1.405       .  A
C313        C318   1.409       .  A
C313        C321   1.492       .  S
C314        C315   1.398       .  A
C314        H323   1.083       .  S
C315        C316   1.406       .  A
C315        H324   1.081       .  S
C316        C317   1.403       .  A
C316        C703   1.486       .  S
C317        C318   1.399       .  A
C317        H709   1.083   1_554  S
C318        H326   1.079       .  S
C319        C700   1.489       .  S
C319        H327   1.087       .  S
C319        C704   1.346       .  D
C320        C403   1.475       .  S
C320        H328   1.085       .  S
C320        C703   1.346       .  D
C321        H329   1.087       .  S
C321        C322   1.347       .  D
C322        H330   1.082       .  S
H325        C701   1.083       .  S
C331        C336   1.408       .  A
C331        C716   1.404       .  A
C331        C339   1.489       .  S
C332        C715   1.403   1_554  A
C332        C717   1.396   1_545  A
C332        H341   1.084       .  S
C333        C334   1.408       .  A
C333        C716   1.399   1_565  A
C333        H726   1.081       .  S
C334        C335   1.404       .  A
C334        C337   1.491       .  S
C335        C336   1.401   1_565  A
C335        H343   1.083       .  S
C336        H344   1.081       .  S
C337        H345   1.087       .  S
C337        C338   1.346       .  D
C338        H346   1.084       .  S
C339        H731   1.087       .  S
C339        C340   1.347       .  D
C340        H348   1.084       .  S
H342        C717   1.080       .  S
H347        C723   1.087   1_554  S
C349        C350   1.406       .  A
C349        C354   1.408       .  A
C349        C357   1.492       .  S
C350        C351   1.399       .  A
C350        H359   1.083   1_554  S
C351        C352   1.407       .  A
C351        H360   1.081       .  S
C352        C353   1.404       .  A
C352        C355   1.490       .  S
C353        C354   1.400       .  A
C353        H361   1.083       .  S
C354        H362   1.080       .  S
C355        H363   1.087       .  S
C355        C356   1.348       .  D
C356        H364   1.083       .  S
C357        H365   1.087   1_554  S
C357        C358   1.350       .  D
C358        C400   1.477       .  S
C358        H366   1.082       .  S
C367        C368   1.404       .  A
C367        C372   1.411       .  A
C367        C375   1.496       .  S
C368        C369   1.399       .  A
C368        H377   1.084       .  S
C369        C370   1.410       .  A
C369        H378   1.080       .  S
C370        C371   1.404       .  A
C370        C373   1.494       .  S
C371        C372   1.401       .  A
C371        H379   1.084       .  S
C372        H380   1.079       .  S
C373        H381   1.088       .  S
C373        C374   1.345       .  D
C374        H382   1.084       .  S
C375        H383   1.088       .  S
C375        C376   1.347       .  D
C376        H384   1.082       .  S
N385        C389   1.360       .  A
N385        C386   1.357       .  A
N385        C497   1.443       .  S
C386        C387   1.380       .  A
C386        C760   1.476       .  S
C387        C388   1.373       .  A
C387        H390   1.082       .  S
C388        C389   1.381       .  A
C388        H391   1.082       .  S
C389        C475   1.476       .  S
N392        C396   1.365       .  A
N392        C393   1.359       .  A
N392        C431   1.444       .  S
C393        C394   1.378       .  A
C393        C758   1.474       .  S
C394        C395   1.369       .  A
C394        H397   1.082       .  S
C395        C396   1.383       .  A
C395        H398   1.082       .  S
C396        C409   1.478       .  S
In399       O401   2.258       .  S
In399       O402   2.228       .  S
In399       O410   2.237       .  S
In399       O407   2.254       .  S
In399       O408   2.261   1_556  S
In399       O411   2.231   1_556  S
C400        O408   1.263       .  A
O401        C409   1.258       .  A
O402        C409   1.260       .  A
C403        O410   1.262   1_554  A
C405        C722   1.473       .  S
C405        O407   1.264       .  A
C405        O411   1.260   1_556  A
In412       O414   2.260       .  S
In412       O415   2.247       .  S
In412       O423   2.240       .  S
In412       O417   2.249       .  S
In412       O419   2.241       .  S
In412       O420   2.217       .  S
In412       O421   2.254       .  S
In412       O424   2.273       .  S
C413        C740   1.474       .  S
C413        O419   1.258       .  A
C413        O421   1.260       .  A
O414        C422   1.260       .  A
O415        C422   1.259       .  A
C416        C668   1.475       .  S
C416        O423   1.262       .  A
C416        O417   1.261       .  A
C418        C455   1.471       .  S
C418        O420   1.259       .  A
C418        O424   1.261       .  A
C422        C688   1.477       .  S
In425       O427   2.237       .  S
In425       O428   2.262       .  S
In425       O436   2.264       .  S
In425       O433   2.254       .  S
In425       O434   2.270       .  S
In425       O437   2.248       .  S
C426        C650   1.479       .  S
C426        O432   1.258       .  A
O427        C435   1.260       .  A
O428        C435   1.261       .  A
C429        C632   1.479       .  S
C429        O430   1.261       .  A
C431        O433   1.261       .  A
C431        O437   1.258       .  A
C435        C724   1.477       .  S
In438       O440   2.259   1_545  S
In438       O441   2.251       .  S
In438       O449   2.235       .  S
In438       O443   2.259       .  S
In438       O445   2.269       .  S
In438       O446   2.262       .  S
In438       O447   2.228       .  S
In438       O450   2.235       .  S
C439        C652   1.481       .  S
C439        O445   1.264       .  A
C439        O447   1.260       .  A
O440        C448   1.261   1_565  A
O441        C448   1.262       .  A
C442        C616   1.475   1_655  S
C442        O449   1.260       .  A
C442        O443   1.265       .  A
C444        C686   1.479       .  S
C444        O446   1.264       .  A
C444        O450   1.261       .  A
C448        N451   1.445   1_545  S
N451        C455   1.360       .  A
N451        C452   1.362       .  A
C452        C453   1.388       .  A
C452        C596   1.487       .  S
C453        C454   1.369       .  A
C453        H456   1.081       .  S
C454        C455   1.378       .  A
C454        H457   1.083       .  S
N458        C462   1.365       .  A
N458        C459   1.362       .  A
N458        C479   1.448       .  S
C459        C460   1.387       .  A
C459        C598   1.488       .  S
C460        C461   1.368       .  A
C460        H463   1.081       .  S
C461        C462   1.381       .  A
C461        H464   1.083       .  S
C462        C514   1.476       .  S
In465       O467   2.264       .  S
In465       O468   2.247       .  S
In465       O476   2.247       .  S
In465       O470   2.249       .  S
In465       O472   2.270       .  S
In465       O473   2.261       .  S
In465       O474   2.241       .  S
In465       O477   2.253       .  S
C466        C578   1.479       .  S
C466        O472   1.261       .  A
C466        O474   1.258       .  A
O467        C475   1.257       .  A
O468        C475   1.258       .  A
C469        C706   1.475       .  S
C469        O476   1.261       .  A
C469        O470   1.261       .  A
C471        C560   1.481       .  S
C471        O473   1.261       .  A
C471        O477   1.261       .  A
In478       O480   2.253       .  S
In478       O489   2.228       .  S
In478       O483   2.267       .  S
In478       O485   2.264   1_565  S
In478       O487   2.253   1_565  S
In478       O490   2.249       .  S
C479        O485   1.261       .  A
C479        O487   1.258       .  A
O480        C488   1.261       .  A
C482        C544   1.480       .  S
C482        O489   1.260       .  A
C482        O483   1.265       .  A
C484        C580   1.480   1_556  S
C484        O490   1.260       .  A
In491       O493   2.231       .  S
In491       O494   2.284       .  S
In491       O502   2.256       .  S
In491       O496   2.244       .  S
In491       O498   2.253       .  S
In491       O499   2.268       .  S
In491       O500   2.256       .  S
In491       O503   2.239       .  S
C492        C524   1.476       .  S
C492        O498   1.260       .  A
C492        O500   1.259       .  A
O493        C501   1.257       .  A
O494        C501   1.264       .  A
C495        C634   1.479       .  S
C495        O502   1.265       .  A
C495        O496   1.261       .  A
C497        O499   1.263       .  A
C497        O503   1.259       .  A
C501        C562   1.478       .  S
In504       O506   2.257       .  S
In504       O507   2.223       .  S
In504       O515   2.231       .  S
In504       O512   2.250       .  S
In504       O513   2.237       .  S
C505        C526   1.480       .  S
C505        O511   1.261       .  A
O506        C514   1.259       .  A
O507        C514   1.260       .  A
C508        C614   1.475       .  S
C508        O509   1.264       .  A
C510        C542   1.478       .  S
C510        O512   1.261       .  A
C517        C518   1.403       .  A
C517        C522   1.406       .  A
C517        C525   1.486       .  S
C518        C519   1.396       .  A
C518        H527   1.084       .  S
C519        C520   1.406       .  A
C519        H528   1.081       .  S
C520        C521   1.407       .  A
C520        C523   1.491       .  S
C521        C522   1.403       .  A
C521        H529   1.083       .  S
C522        H530   1.082       .  S
C523        H531   1.087       .  S
C523        C524   1.349       .  D
C524        H532   1.084       .  S
C525        C526   1.348       .  D
C526        H534   1.085       .  S
C535        C536   1.404   1_556  A
C535        C540   1.408       .  A
C535        C543   1.490       .  S
C536        C537   1.396       .  A
C537        C538   1.407   1_554  A
C537        H546   1.080       .  S
C538        C539   1.407       .  A
C538        C541   1.492       .  S
C539        C540   1.403       .  A
C539        H547   1.083       .  S
C540        H548   1.081       .  S
C541        H549   1.087       .  S
C541        C542   1.349       .  D
C542        H550   1.084   1_556  S
C543        H551   1.087       .  S
C543        C544   1.349       .  D
C544        H552   1.083       .  S
C553        C554   1.406       .  A
C553        C558   1.410       .  A
C553        C561   1.498       .  S
C554        C555   1.404   1_545  A
C554        H563   1.083       .  S
C555        C556   1.408       .  A
C555        H564   1.082       .  S
C556        C557   1.402       .  A
C556        C559   1.490       .  S
C557        C558   1.398   1_565  A
C557        H565   1.084       .  S
C558        H566   1.080       .  S
C559        H567   1.087       .  S
C559        C560   1.346       .  D
C560        H568   1.085       .  S
C561        H569   1.087       .  S
C561        C562   1.348       .  D
C562        H570   1.083       .  S
C571        C572   1.406       .  A
C571        C576   1.407       .  A
C571        C579   1.491       .  S
C572        C573   1.402       .  A
C572        H581   1.083       .  S
C573        C574   1.408       .  A
C573        H582   1.080       .  S
C574        C575   1.404       .  A
C574        C577   1.490       .  S
C575        C576   1.396       .  A
C575        H583   1.084       .  S
C576        H584   1.080       .  S
C577        H585   1.087       .  S
C577        C578   1.348       .  D
C578        H586   1.083       .  S
C579        H587   1.087       .  S
C580        H588   1.085       .  S
C589        C590   1.403       .  A
C589        C594   1.408       .  A
C589        C597   1.486       .  S
C590        C591   1.396       .  A
C590        H599   1.084       .  S
C591        C592   1.406       .  A
C591        H600   1.081       .  S
C592        C593   1.404       .  A
C592        C595   1.485   1_445  S
C593        C594   1.400       .  A
C593        H601   1.084       .  S
C594        H602   1.081       .  S
C595        H603   1.085       .  S
C595        C596   1.349       .  D
C596        H604   1.083   1_565  S
C597        H605   1.086       .  S
C597        C598   1.348       .  D
C598        H606   1.083       .  S
C607        C608   1.402       .  A
C607        C612   1.409       .  A
C607        C615   1.489       .  S
C608        C609   1.398       .  A
C608        H617   1.083       .  S
C609        C610   1.409       .  A
C609        H618   1.081       .  S
C610        C611   1.404       .  A
C610        C613   1.491       .  S
C611        C612   1.401       .  A
C611        H619   1.083       .  S
C612        H620   1.081       .  S
C613        H621   1.087       .  S
C613        C614   1.346       .  D
C614        H622   1.084       .  S
C615        H623   1.087   1_455  S
C615        C616   1.345       .  D
C616        H624   1.084       .  S
C625        C626   1.405       .  A
C625        C630   1.410       .  A
C625        C633   1.495       .  S
C626        C627   1.399       .  A
C626        H635   1.083       .  S
C627        C628   1.408       .  A
C627        H636   1.080       .  S
C628        C629   1.404       .  A
C628        C631   1.493       .  S
C629        C630   1.401       .  A
C630        H638   1.079       .  S
C631        C632   1.347       .  D
C632        H640   1.084       .  S
C633        H641   1.087       .  S
C633        C634   1.347       .  D
C634        H642   1.082       .  S
C643        C644   1.405       .  A
C643        C648   1.409       .  A
C643        C651   1.492       .  S
C644        C645   1.396       .  A
C644        H653   1.084       .  S
C645        C646   1.406       .  A
C645        H654   1.081       .  S
C646        C647   1.406       .  A
C646        C649   1.492       .  S
C647        C648   1.404       .  A
C647        H655   1.083       .  S
C648        H656   1.080       .  S
C649        H657   1.087       .  S
C649        C650   1.350       .  D
C650        H658   1.084       .  S
C651        H659   1.088       .  S
C651        C652   1.349       .  D
C652        H660   1.083       .  S
C661        C662   1.403       .  A
C661        C666   1.407       .  A
C662        C663   1.400   1_455  A
C663        C664   1.409   1_655  A
C663        H672   1.080       .  S
C664        C665   1.403       .  A
C664        C667   1.489   1_455  S
C665        C666   1.396       .  A
C665        H673   1.083       .  S
C666        H674   1.081       .  S
C667        H675   1.087   1_655  S
C667        C668   1.345       .  D
C668        H676   1.083       .  S
C669        H677   1.087       .  S
C670        H678   1.084       .  S
C679        C680   1.406       .  A
C679        C684   1.407       .  A
C679        C687   1.491       .  S
C680        C681   1.401       .  A
C680        H689   1.083       .  S
C681        C682   1.407       .  A
C681        H690   1.081       .  S
C682        C683   1.404       .  A
C682        C685   1.488       .  S
C683        C684   1.399       .  A
C683        H691   1.083       .  S
C684        H692   1.080       .  S
C685        H693   1.087       .  S
C685        C686   1.348       .  D
C686        H694   1.084       .  S
C687        H695   1.087       .  S
C687        C688   1.349       .  D
C688        H696   1.083       .  S
C697        C698   1.405       .  A
C697        C702   1.407       .  A
C697        C705   1.490       .  S
C698        C699   1.401       .  A
C698        H707   1.083       .  S
C699        C700   1.409       .  A
C699        H708   1.080       .  S
C700        C701   1.403       .  A
C701        C702   1.397       .  A
C702        H710   1.080       .  S
C703        H711   1.087   1_554  S
C704        H712   1.084       .  S
C705        H713   1.087       .  S
C705        C706   1.347       .  D
C706        H714   1.083       .  S
C715        C720   1.408       .  A
C715        C723   1.488       .  S
C716        H725   1.083       .  S
C717        C718   1.408   1_554  A
C718        C719   1.405       .  A
C718        C721   1.492       .  S
C719        C720   1.401   1_565  A
C719        H727   1.083       .  S
C720        H728   1.080       .  S
C721        H729   1.087       .  S
C721        C722   1.347       .  D
C722        H730   1.082   1_556  S
C723        C724   1.347       .  D
C724        H732   1.084       .  S
C733        C734   1.405       .  A
C733        C738   1.408       .  A
C733        C741   1.491       .  S
C734        C735   1.398       .  A
C734        H743   1.083       .  S
C735        C736   1.407       .  A
C735        H744   1.080       .  S
C736        C737   1.405       .  A
C736        C739   1.490       .  S
C737        C738   1.399       .  A
C737        H745   1.083       .  S
C738        H746   1.080       .  S
C739        H747   1.087       .  S
C739        C740   1.348       .  D
C740        H748   1.082       .  S
C741        H749   1.087       .  S
C741        C742   1.349       .  D
C742        H750   1.082       .  S
C751        C752   1.403       .  A
C751        C756   1.410       .  A
C751        C759   1.492       .  S
C752        C753   1.399       .  A
C752        H761   1.084       .  S
C753        C754   1.411       .  A
C753        H762   1.079       .  S
C754        C755   1.403       .  A
C754        C757   1.492       .  S
C755        C756   1.398       .  A
C755        H763   1.084       .  S
C756        H764   1.079       .  S
C757        H765   1.088       .  S
C757        C758   1.345       .  D
C758        H766   1.081       .  S
C759        H767   1.088       .  S
C759        C760   1.345       .  D
C760        H768   1.083       .  S
