geometry optimzed in LAMMPS
_audit_creation_date              2020-11-30 
_audit_creation_method            'lammps2cif' 
_symmetry_space_group_name_H-M    'P1' 
_symmetry_Int_Tables_number       1 
_symmetry_cell_setting            triclinic 
loop_ 
_symmetry_equiv_pos_as_xyz 
  x,y,z 
_cell_length_a                    53.85142644 
_cell_length_b                    53.03290779888529 
_cell_length_c                    53.22994594422673 
_cell_angle_alpha                 90.11128581637959 
_cell_angle_beta                  89.75035076124632 
_cell_angle_gamma                 89.83563805404152 
loop_ 
_atom_site_label 
_atom_site_type_symbol 
_atom_site_fract_x 
_atom_site_fract_y 
_atom_site_fract_z 
_atom_site_charge 
O1          O  0.53722756  0.02472703  0.50740291    -0.80500
O2          O  0.43367416  0.00596693  0.48362469    -0.80500
O3          O  0.49629957  0.03430997  0.46639465    -0.80500
O4          O  0.48986746  0.03895873  0.53932676    -0.80400
O5          O  0.47015428  0.00762735  0.44883865    -0.80600
O6          O  0.51754464  0.01228590  0.55256245    -0.80500
O7          O  0.44820467  0.03708614  0.50704923    -0.80500
O8          O  0.54556734  0.01918858  0.46707214    -0.80500
C9          C  0.55165349  0.02826121  0.48821128     1.09200
C10         C  0.43239400  0.02850954  0.49157415     1.09100
C11         C  0.48243488  0.02824678  0.44813177     1.09200
C12         C  0.50498165  0.03218459  0.55620669     1.09100
O13         O  0.50323587  0.96359346  0.53822448    -0.80500
O14         O  0.48754785  0.95817797  0.46573414    -0.80600
O15         O  0.53755598  0.97504001  0.49021924    -0.80500
O16         O  0.43660613  0.98885116  0.52769990    -0.80500
O17         O  0.45054837  0.95866027  0.50263138    -0.80500
O18         O  0.55123540  0.98085019  0.52881394    -0.80500
O19         O  0.47680005  0.98924521  0.55757679    -0.80400
O20         O  0.51136894  0.98615705  0.44858604    -0.80500
Co21       Co  0.51863305  0.99246824  0.52038570     1.51500
Co22       Co  0.46227472  0.98292800  0.47703161     1.51700
Co23       Co  0.51551421  0.00605677  0.48057485     1.51600
Co24       Co  0.46448220  0.01329453  0.53087763     1.51500
O25         O  0.48596993  0.99843891  0.50266601    -1.42400
C26         C  0.49038291  0.96942878  0.55756509     1.09100
C27         C  0.49997022  0.96537839  0.44691470     1.09200
C28         C  0.55496338  0.97255415  0.50671881     1.09200
C29         C  0.43533724  0.96649913  0.51914949     1.09100
O30         O  0.96229512  0.53548011  0.50394130    -0.80500
O31         O  0.97127936  0.46350958  0.49113337    -0.80500
O32         O  0.98007924  0.50656950  0.45372765    -0.80500
O33         O  0.99466113  0.47762172  0.55871960    -0.80400
O34         O  0.99020693  0.46773002  0.44298517    -0.80600
O35         O  0.96395224  0.50101255  0.54405274    -0.80500
O36         O  0.99574724  0.44544939  0.51915668    -0.80500
O37         O  0.98882259  0.55131280  0.47765480    -0.80500
C38         C  0.96881910  0.55361043  0.49002077     1.09200
C39         C  0.97673618  0.44470825  0.50476380     1.09100
C40         C  0.97980329  0.48839572  0.43743837     1.09200
C41         C  0.97216884  0.48473080  0.55940627     1.09100
O42         O  0.01014681  0.52300239  0.55903210    -0.80500
O43         O  0.03137322  0.49299756  0.45554495    -0.80600
O44         O  0.03678560  0.53744119  0.49330009    -0.80500
O45         O  0.04483996  0.46491104  0.50575046    -0.80500
O46         O  0.01998498  0.44813887  0.47884863    -0.80500
O47         O  0.01008098  0.55510209  0.51971339    -0.80500
O48         O  0.04130252  0.49929200  0.54545815    -0.80400
O49         O  0.02203727  0.53176578  0.44395600    -0.80500
Co50       Co  0.98705809  0.52667901  0.52995267     1.51500
Co51       Co  0.99991344  0.47999766  0.47504030     1.51700
Co52       Co  0.00979670  0.51999175  0.47534928     1.51600
Co53       Co  0.01879422  0.47369638  0.53055171     1.51500
O54         O  0.00362802  0.50016305  0.50720384    -1.42400
C55         C  0.03257184  0.51565026  0.56057426     1.09100
C56         C  0.03306503  0.51112618  0.43933204     1.09200
C57         C  0.02997685  0.55619684  0.50656298     1.09200
C58         C  0.03920027  0.44622958  0.49225143     1.09100
O59         O  0.47459066  0.48079499  0.96173414    -0.80500
O60         O  0.54986667  0.51722359  0.96559417    -0.80500
O61         O  0.49334834  0.55268389  0.96252513    -0.80500
O62         O  0.51883250  0.45394757  0.97742620    -0.80400
O63         O  0.52931223  0.56081845  0.98118716    -0.80600
O64         O  0.48217090  0.44017199  0.99162822    -0.80500
O65         O  0.56176831  0.48176821  0.98060114    -0.80500
O66         O  0.45516785  0.51664398  0.96950736    -0.80500
C67         C  0.45614227  0.49536668  0.95863702     1.09200
C68         C  0.56567621  0.49952468  0.96596231     1.09100
C69         C  0.51250950  0.56649141  0.96521359     1.09200
C70         C  0.50282740  0.43596367  0.98049791     1.09100
O71         O  0.50015631  0.46591916  0.03123388    -0.80500
O72         O  0.52291631  0.54135308  0.03143923    -0.80600
O73         O  0.46247048  0.52167899  0.02233524    -0.80500
O74         O  0.55078913  0.50053699  0.02792203    -0.80500
O75         O  0.56775787  0.53437074  0.01001873    -0.80500
O76         O  0.45448543  0.48279847  0.01047572    -0.80500
O77         O  0.53682013  0.45315151  0.02162273    -0.80400
O78         O  0.49281311  0.56237365  0.01422685    -0.80500
Co79       Co  0.48847894  0.47538026  0.99587950     1.51500
Co80       Co  0.53499933  0.52752640  0.99879490     1.51700
Co81       Co  0.47747941  0.53644779  0.99215977     1.51600
Co82       Co  0.53167547  0.48243557  0.00023008     1.51500
O83         O  0.50409011  0.50939374  0.99405736    -1.42400
C84         C  0.51755340  0.44957775  0.03396313     1.09100
C85         C  0.50977073  0.56100095  0.03040591     1.09200
C86         C  0.44760378  0.50341324  0.02075183     1.09200
C87         C  0.56956122  0.51531179  0.02464163     1.09100
C88         C  0.56569881  0.92272508  0.72412676     0.02800
C89         C  0.56088806  0.93646648  0.74644650    -0.13400
C90         C  0.57496808  0.93221762  0.76843498     0.00300
C91         C  0.59399488  0.91389164  0.76772574    -0.11900
C92         C  0.59896901  0.89983002  0.74586687     0.02800
C93         C  0.58455792  0.90419397  0.72436431    -0.11300
H94         H  0.54675044  0.95100442  0.74649240     0.08400
H95         H  0.60454249  0.90992757  0.78449220     0.05900
H96         H  0.58825585  0.89317860  0.70765317     0.05800
C97         C  0.75346831  0.72784985  0.76551231     0.02800
C98         C  0.77249563  0.72893000  0.74736205    -0.13400
C99         C  0.77290058  0.74783989  0.72896271     0.00300
C100        C  0.75410631  0.76632943  0.72904071    -0.11900
C101        C  0.73503414  0.76607089  0.74726909     0.02800
C102        C  0.73483195  0.74661256  0.76535096    -0.11300
H103        H  0.78710310  0.71486202  0.74739789     0.08400
H104        H  0.75431824  0.78092265  0.71480682     0.05900
H105        H  0.72014160  0.74608291  0.77926881     0.05800
C106        C  0.92771093  0.72552662  0.55815414     0.02800
C107        C  0.94099211  0.74811234  0.55382273    -0.13400
C108        C  0.93677021  0.76988154  0.56879318     0.00300
C109        C  0.91902860  0.76837185  0.58835954    -0.11900
C110        C  0.90597425  0.74596902  0.59327847     0.02800
C111        C  0.91047989  0.72478168  0.57807964    -0.11300
H112        H  0.95453990  0.74865774  0.53876550     0.08400
H113        H  0.91461067  0.78494901  0.59940739     0.05900
H114        H  0.90086922  0.70733600  0.58220165     0.05800
C115        C  0.78150839  0.56633607  0.93060455     0.02800
C116        C  0.78194315  0.58414825  0.91090419    -0.13400
C117        C  0.76084808  0.58896163  0.89630536     0.00300
C118        C  0.73899077  0.57548009  0.90102104    -0.11900
C119        C  0.73762757  0.55743826  0.92033379     0.02800
C120        C  0.75906707  0.55305541  0.93513382    -0.11300
H121        H  0.79887565  0.59413775  0.90637616     0.08400
H122        H  0.72261567  0.57993943  0.89012902     0.05900
H123        H  0.75818382  0.53945394  0.95021559     0.05800
C124        C  0.27683604  0.22836232  0.74470280     0.02800
C125        C  0.27594480  0.24730287  0.76319664    -0.13400
C126        C  0.25660698  0.26511306  0.76360495     0.00300
C127        C  0.23805646  0.26394007  0.74524307    -0.11900
C128        C  0.23857352  0.24521648  0.72658703     0.02800
C129        C  0.25804979  0.22746528  0.72641376    -0.11300
H130        H  0.29025720  0.24811964  0.77738789     0.08400
H131        H  0.22314008  0.27768594  0.74546432     0.05900
H132        H  0.25860083  0.21300349  0.71202604     0.05800
C133        C  0.28476197  0.42620870  0.92372885     0.02800
C134        C  0.26431085  0.43190833  0.93960281    -0.13400
C135        C  0.24100248  0.42034398  0.93568382     0.00300
C136        C  0.23835998  0.40319294  0.91570088    -0.11900
C137        C  0.25824896  0.39757454  0.89964324     0.02800
C138        C  0.28110514  0.40942760  0.90355660    -0.11300
H139        H  0.26659114  0.44462454  0.95529747     0.08400
H140        H  0.22047486  0.39466550  0.91213687     0.05900
H141        H  0.29623045  0.40525687  0.89078876     0.05800
C142        C  0.44578531  0.07745460  0.77674446     0.02800
C143        C  0.46046684  0.07155997  0.75528032    -0.13400
C144        C  0.45418692  0.08133009  0.73134188     0.00300
C145        C  0.43300771  0.09678741  0.72919904    -0.11900
C146        C  0.41815480  0.10255411  0.75009004     0.02800
C147        C  0.42444746  0.09250322  0.77349569    -0.11300
H148        H  0.47696724  0.06003059  0.75721459     0.08400
H149        H  0.42765467  0.10397727  0.71096216     0.05900
H150        H  0.41255740  0.09673123  0.78940104     0.05800
C151        C  0.07928924  0.22770090  0.56339910     0.02800
C152        C  0.07293356  0.25066940  0.55153991    -0.13400
C153        C  0.08450927  0.27350603  0.55873856     0.00300
C154        C  0.10242093  0.27289278  0.57792897    -0.11900
C155        C  0.10859062  0.25031607  0.59014095     0.02800
C156        C  0.09707906  0.22785168  0.58261881    -0.11300
H157        H  0.05898558  0.25075364  0.53701109     0.08400
H158        H  0.11149780  0.29014345  0.58360186     0.05900
H159        H  0.10188572  0.21034136  0.59187089     0.05800
O160        O  0.47132575  0.01805561  0.97126467    -0.80500
O161        O  0.47427748  0.99179398  0.04647171    -0.80500
O162        O  0.47096248  0.95519078  0.99218120    -0.80500
O163        O  0.48043833  0.04472404  0.01373086    -0.80400
O164        O  0.48765219  0.94510926  0.02850746    -0.80600
O165        O  0.49805395  0.05963131  0.97861949    -0.80500
O166        O  0.48793214  0.02668606  0.06064737    -0.80500
O167        O  0.48040512  0.98440655  0.94994182    -0.80500
C168        C  0.46937313  0.00530250  0.95140739     1.09200
C169        C  0.47443479  0.00809310  0.06416865     1.09100
C170        C  0.47245253  0.94065592  0.01087819     1.09200
C171        C  0.48463499  0.06315909  0.99834330     1.09100
O172        O  0.54027506  0.03470289  0.99168166    -0.80500
O173        O  0.53807142  0.95830221  0.02507707    -0.80600
O174        O  0.53113208  0.97637718  0.95496272    -0.80500
O175        O  0.52963949  0.00456021  0.05529878    -0.80500
O176        O  0.51291525  0.96840888  0.06838616    -0.80500
O177        O  0.51979376  0.01630252  0.94833629    -0.80500
O178        O  0.52869919  0.04796908  0.02804701    -0.80400
O179        O  0.52206087  0.93951932  0.99194799    -0.80500
Co180      Co  0.50552239  0.02474447  0.98305131     1.51500
Co181      Co  0.50691907  0.97663789  0.03415515     1.51700
Co182      Co  0.50133108  0.96549230  0.97427248     1.51600
Co183      Co  0.50583218  0.02028293  0.02898328     1.51500
O184        O  0.50671118  0.99266092  0.00065379    -1.42400
C185        C  0.54237943  0.05054512  0.00937840     1.09100
C186        C  0.53667934  0.93929839  0.01060796     1.09200
C187        C  0.53113945  0.99610887  0.94127181     1.09200
C188        C  0.52669331  0.98743626  0.07248082     1.09100
C189        C  0.28489090  0.74531976  0.76621018     0.02800
C190        C  0.26688196  0.72651831  0.76966257    -0.13400
C191        C  0.24619678  0.72500230  0.75378855     0.00300
C192        C  0.24375208  0.74246466  0.73415058    -0.11900
C193        C  0.26148235  0.76144321  0.73052750     0.02800
C194        C  0.28214918  0.76258444  0.74646560    -0.11300
H195        H  0.26876211  0.71332049  0.78504214     0.08400
H196        H  0.22808639  0.74123537  0.72153000     0.05900
H197        H  0.29547652  0.77768635  0.74426903     0.05800
C198        C  0.45462269  0.73609494  0.91758432     0.02800
C199        C  0.43723557  0.73688557  0.89794101    -0.13400
C200        C  0.42197827  0.75812363  0.89432746     0.00300
C201        C  0.42422157  0.77871899  0.91080127    -0.11900
C202        C  0.44095260  0.77812873  0.93096075     0.02800
C203        C  0.45633569  0.75689959  0.93393726    -0.11300
H204        H  0.43480489  0.72047580  0.88608784     0.08400
H205        H  0.41308061  0.79544888  0.90776471     0.05900
H206        H  0.46943816  0.75643731  0.94928525     0.05800
C207        C  0.22104381  0.92693322  0.57290623     0.02800
C208        C  0.22165953  0.91067928  0.59389626    -0.13400
C209        C  0.24306025  0.89673207  0.59959695     0.00300
C210        C  0.26423557  0.89939686  0.58456693    -0.11900
C211        C  0.26440234  0.91587659  0.56410904     0.02800
C212        C  0.24275851  0.92939241  0.55816831    -0.11300
H213        H  0.20573215  0.90910012  0.60625973     0.08400
H214        H  0.28089287  0.88893461  0.58912515     0.05900
H215        H  0.24297423  0.94151934  0.54181420     0.05800
C216        C  0.07327479  0.57592177  0.77692269     0.02800
C217        C  0.09436998  0.59109604  0.78018660    -0.13400
C218        C  0.11038088  0.59629874  0.76009432     0.00300
C219        C  0.10562787  0.58568897  0.73645523    -0.11900
C220        C  0.08459882  0.57066052  0.73258882     0.02800
C221        C  0.06834807  0.56596565  0.75286233    -0.11300
H222        H  0.09880908  0.59853000  0.79860721     0.08400
H223        H  0.11770941  0.59005319  0.72074464     0.05900
H224        H  0.05197715  0.55460951  0.74985357     0.05800
C225        C  0.74204902  0.26879332  0.23571017     0.02800
C226        C  0.76140693  0.26943228  0.25338808    -0.13400
C227        C  0.76225499  0.25216484  0.27336880     0.00300
C228        C  0.74331199  0.23409435  0.27556975    -0.11900
C229        C  0.72392234  0.23282191  0.25799966     0.02800
C230        C  0.72347824  0.25030500  0.23811500    -0.11300
H231        H  0.77625672  0.28300716  0.25119489     0.08400
H232        H  0.74340266  0.22126256  0.29136814     0.05900
H233        H  0.70865729  0.24952837  0.22445966     0.05800
C234        C  0.92591516  0.27644519  0.43267413     0.02800
C235        C  0.93930262  0.25407197  0.43760958    -0.13400
C236        C  0.93386846  0.23149187  0.42473153     0.00300
C237        C  0.91431594  0.23140584  0.40721649    -0.11900
C238        C  0.90084725  0.25350084  0.40198196     0.02800
C239        C  0.90686893  0.27586040  0.41467523    -0.11300
H240        H  0.95415568  0.25428216  0.45124298     0.08400
H241        H  0.90972013  0.21415797  0.39737844     0.05900
H242        H  0.89671115  0.29293352  0.41033707     0.05800
C243        C  0.77226995  0.41616204  0.05986241     0.02800
C244        C  0.77025737  0.39726075  0.07850426    -0.13400
C245        C  0.74831351  0.39422193  0.09256500     0.00300
C246        C  0.72760456  0.40909583  0.08685374    -0.11900
C247        C  0.72860474  0.42717345  0.06770293     0.02800
C248        C  0.75108845  0.43105455  0.05473993    -0.11300
H249        H  0.78575683  0.38505611  0.08258687     0.08400
H250        H  0.71052385  0.40653504  0.09737945     0.05900
H251        H  0.75187105  0.44578881  0.04078135     0.05800
C252        C  0.55821006  0.07441159  0.28347135     0.02800
C253        C  0.55408959  0.06047126  0.26124905    -0.13400
C254        C  0.56875799  0.06460772  0.23955574     0.00300
C255        C  0.58780684  0.08279809  0.24060758    -0.11900
C256        C  0.59177700  0.09718603  0.26241184     0.02800
C257        C  0.57687031  0.09289612  0.28360129    -0.11300
H258        H  0.53951044  0.04649112  0.26086453     0.08400
H259        H  0.59944909  0.08603827  0.22431398     0.05900
H260        H  0.57993637  0.10400359  0.30040112     0.05800
O261        O  0.96433922  0.51922977  0.98704859    -0.80500
O262        O  0.04536019  0.52592260  0.99253887    -0.80500
O263        O  0.00439861  0.52591388  0.02754362    -0.80500
O264        O  0.01177634  0.52318794  0.95914733    -0.80400
O265        O  0.04122201  0.51881851  0.04464281    -0.80600
O266        O  0.98220990  0.50303176  0.94106704    -0.80500
O267        O  0.06099830  0.51140726  0.95632405    -0.80500
O268        O  0.95327316  0.51448948  0.02653875    -0.80500
C269        C  0.94845055  0.52319245  0.00487977     1.09200
C270        C  0.06372493  0.52432635  0.97658868     1.09100
C271        C  0.01879302  0.52655954  0.04710778     1.09200
C272        C  0.99831727  0.52013204  0.94009712     1.09100
O273        O  0.98890561  0.45420672  0.95510591    -0.80500
O274        O  0.02519078  0.47098225  0.04111572    -0.80600
O275        O  0.95730030  0.46859506  0.00518025    -0.80500
O276        O  0.05569419  0.46546533  0.97686115    -0.80500
O277        O  0.06527965  0.48155550  0.01318205    -0.80500
O278        O  0.94330650  0.47744794  0.96698620    -0.80500
O279        O  0.02256163  0.47324291  0.93920916    -0.80400
O280        O  0.98592436  0.47950652  0.04700892    -0.80500
Co281      Co  0.97752380  0.48480908  0.97337730     1.51500
Co282      Co  0.03219754  0.49833868  0.01670537     1.51700
Co283      Co  0.98216424  0.49692572  0.01432140     1.51600
Co284      Co  0.03287933  0.49396865  0.96933034     1.51500
O285        O  0.00955691  0.48138507  0.99272944    -1.42400
C286        C  0.00511011  0.45677206  0.93757629     1.09100
C287        C  0.00578993  0.46935117  0.05436976     1.09200
C288        C  0.93953683  0.46826202  0.98881017     1.09200
C289        C  0.07093740  0.46753466  0.99474852     1.09100
C290        C  0.21852287  0.07113953  0.42100641     0.02800
C291        C  0.24106968  0.06488752  0.43325286    -0.13400
C292        C  0.26309231  0.07844104  0.42797470     0.00300
C293        C  0.26194114  0.09856889  0.41087395    -0.11900
C294        C  0.24038522  0.10403505  0.39736990     0.02800
C295        C  0.21866738  0.09045801  0.40279070    -0.11300
H296        H  0.24148123  0.04952006  0.44663042     0.08400
H297        H  0.27823308  0.11009560  0.40775485     0.05900
H298        H  0.20195750  0.09441103  0.39227546     0.05800
C299        C  0.25058041  0.23806176  0.26195459     0.02800
C300        C  0.27118536  0.23929911  0.24563425    -0.13400
C301        C  0.27273649  0.25806832  0.22702248     0.00300
C302        C  0.25361215  0.27612667  0.22533907    -0.11900
C303        C  0.23300883  0.27535102  0.24165273     0.02800
C304        C  0.23151421  0.25606586  0.25964957    -0.11300
H305        H  0.28564748  0.22516858  0.24691436     0.08400
H306        H  0.25480552  0.29089980  0.21139275     0.05900
H307        H  0.21593801  0.25567487  0.27255485     0.05800
C308        C  0.08142386  0.44859917  0.26859025     0.02800
C309        C  0.06723126  0.45295077  0.24677095    -0.13400
C310        C  0.07094236  0.43826086  0.22500919     0.00300
C311        C  0.08967692  0.41977645  0.22497081    -0.11900
C312        C  0.10364115  0.41463312  0.24652537     0.02800
C313        C  0.09942157  0.42920572  0.26822238    -0.11300
H314        H  0.05299963  0.46744490  0.24684136     0.08400
H315        H  0.09348604  0.40930317  0.20789221     0.05900
H316        H  0.10950673  0.42473257  0.28521088     0.05800
C317        C  0.45125567  0.27886281  0.08194496     0.02800
C318        C  0.43133276  0.27888576  0.09923762    -0.13400
C319        C  0.41740350  0.25703721  0.10388331     0.00300
C320        C  0.42350699  0.23472171  0.09100127    -0.11900
C321        C  0.44304921  0.23388552  0.07328591     0.02800
C322        C  0.45692197  0.25614872  0.06903111    -0.11300
H323        H  0.42595548  0.29619960  0.10856736     0.08400
H324        H  0.41319556  0.21778539  0.09530213     0.05900
H325        H  0.47198859  0.25585009  0.05556196     0.05800
C326        C  0.76353135  0.25375320  0.74749652     0.02800
C327        C  0.76371418  0.23534046  0.72850318    -0.13400
C328        C  0.74481922  0.21711225  0.72731271     0.00300
C329        C  0.72579198  0.21742817  0.74549372    -0.11900
C330        C  0.72567016  0.23546124  0.76480193     0.02800
C331        C  0.74453338  0.25361220  0.76558473    -0.11300
H332        H  0.77849741  0.23528156  0.71465993     0.08400
H333        H  0.71113443  0.20350722  0.74475835     0.05900
H334        H  0.74445510  0.26769831  0.78036818     0.05800
C335        C  0.92158472  0.41623423  0.72756048     0.02800
C336        C  0.90148307  0.39960313  0.73010948    -0.13400
C337        C  0.89636377  0.38753113  0.75290902     0.00300
C338        C  0.91130544  0.39266685  0.77376860    -0.11900
C339        C  0.93140436  0.40948760  0.77204583     0.02800
C340        C  0.93633252  0.42143045  0.74881723    -0.11300
H341        H  0.88996319  0.39557532  0.71400685     0.08400
H342        H  0.90697581  0.38380127  0.79158616     0.05900
H343        H  0.95212388  0.43393730  0.74707306     0.05800
C344        C  0.58254316  0.22027144  0.94383863     0.02800
C345        C  0.57093738  0.24338552  0.94994885    -0.13400
C346        C  0.57310515  0.26452081  0.93389406     0.00300
C347        C  0.58729438  0.26199046  0.91162615    -0.11900
C348        C  0.59938926  0.23924907  0.90557144     0.02800
C349        C  0.59630019  0.21848021  0.92148438    -0.11300
H350        H  0.56078602  0.24499892  0.96747355     0.08400
H351        H  0.58928961  0.27785664  0.89903956     0.05900
H352        H  0.60445298  0.20053692  0.91620591     0.05800
C353        C  0.71953142  0.06571119  0.55452773     0.02800
C354        C  0.71959278  0.08234564  0.57517242    -0.13400
C355        C  0.74075455  0.08533745  0.59011713     0.00300
C356        C  0.76190786  0.07079939  0.58489062    -0.11900
C357        C  0.76234057  0.05375505  0.56468203     0.02800
C358        C  0.74114740  0.05144721  0.54938839    -0.11300
H359        H  0.70297306  0.09284866  0.57999910     0.08400
H360        H  0.77849150  0.07354052  0.59598756     0.05900
H361        H  0.74159397  0.03872262  0.53355767     0.05800
C362        C  0.76388919  0.75229281  0.28689938     0.02800
C363        C  0.74547513  0.75377784  0.26839272    -0.13400
C364        C  0.74565473  0.73738065  0.24772354     0.00300
C365        C  0.76432236  0.71895030  0.24587858    -0.11900
C366        C  0.78278949  0.71687925  0.26438167     0.02800
C367        C  0.78277564  0.73401911  0.28463953    -0.11300
H368        H  0.73116069  0.76814885  0.26984623     0.08400
H369        H  0.76433949  0.70600570  0.23006857     0.05900
H370        H  0.79676835  0.73249777  0.29909405     0.05800
C371        C  0.72590690  0.91691054  0.44575831     0.02800
C372        C  0.72776775  0.89429476  0.43180924    -0.13400
C373        C  0.75035255  0.88645679  0.42101815     0.00300
C374        C  0.77167860  0.90076046  0.42551533    -0.11900
C375        C  0.77077628  0.92272203  0.44013385     0.02800
C376        C  0.74776852  0.93111925  0.44984590    -0.11300
H377        H  0.71154049  0.88254639  0.42934510     0.08400
H378        H  0.78915565  0.89531335  0.41692502     0.05900
H379        H  0.74698876  0.94860488  0.46038667     0.05800
C380        C  0.94173529  0.55458676  0.21904492     0.02800
C381        C  0.92275589  0.57288219  0.22016143    -0.13400
C382        C  0.91080078  0.57852620  0.24298325     0.00300
C383        C  0.91782099  0.56551616  0.26469109    -0.11900
C384        C  0.93640036  0.54687979  0.26409194     0.02800
C385        C  0.94871953  0.54182972  0.24117726    -0.11300
H386        H  0.91734667  0.58278441  0.20322803     0.08400
H387        H  0.90904363  0.57040746  0.28240712     0.05900
H388        H  0.96308963  0.52751460  0.24034557     0.05800
C389        C  0.58926847  0.77104065  0.08189587     0.02800
C390        C  0.60716019  0.77087581  0.10116467    -0.13400
C391        C  0.61334660  0.74850200  0.11382874     0.00300
C392        C  0.60137302  0.72602346  0.10709848    -0.11900
C393        C  0.58331920  0.72558679  0.08815652     0.02800
C394        C  0.57733844  0.74819580  0.07564582    -0.11300
H395        H  0.61582450  0.78831633  0.10688211     0.08400
H396        H  0.60609589  0.70870715  0.11671638     0.05900
H397        H  0.56387766  0.74779835  0.06062659     0.05800
C398        C  0.23085160  0.74406386  0.26534335     0.02800
C399        C  0.23013783  0.72601551  0.24593675    -0.13400
C400        C  0.24913546  0.72467381  0.22769607     0.00300
C401        C  0.26884511  0.74210838  0.22887135    -0.11900
C402        C  0.26979198  0.76062858  0.24788177     0.02800
C403        C  0.25073425  0.76125155  0.26610757    -0.11300
H404        H  0.21516899  0.71240674  0.24556456     0.08400
H405        H  0.28311881  0.74169487  0.21451992     0.05900
H406        H  0.25134789  0.77515019  0.28098972     0.05800
C407        C  0.43796255  0.91615954  0.27473633     0.02800
C408        C  0.44295550  0.93084867  0.25309924    -0.13400
C409        C  0.43063603  0.92631238  0.23008809     0.00300
C410        C  0.41309885  0.90653875  0.22917278    -0.11900
C411        C  0.40773041  0.89173509  0.25044740     0.02800
C412        C  0.42036419  0.89660620  0.27296956    -0.11300
H413        H  0.45631723  0.94599434  0.25427140     0.08400
H414        H  0.40377969  0.90223722  0.21175713     0.05900
H415        H  0.41559981  0.88573559  0.28950897     0.05800
C416        C  0.06502722  0.76946186  0.42534473     0.02800
C417        C  0.06070933  0.74731075  0.43927740    -0.13400
C418        C  0.07451773  0.72516193  0.43457102     0.00300
C419        C  0.09273559  0.72540380  0.41551439    -0.11900
C420        C  0.09764245  0.74731849  0.40147362     0.02800
C421        C  0.08371097  0.76924075  0.40669429    -0.11300
H422        H  0.04649858  0.74726136  0.45371815     0.08400
H423        H  0.10262389  0.70816556  0.41109725     0.05900
H424        H  0.08781131  0.78642632  0.39659966     0.05800
C425        C  0.27221536  0.55934510  0.06583002     0.02800
C426        C  0.27053053  0.57685396  0.08574993    -0.13400
C427        C  0.24835409  0.58973291  0.09127432     0.00300
C428        C  0.22703148  0.58382299  0.07741240    -0.11900
C429        C  0.22763744  0.56555001  0.05815708     0.02800
C430        C  0.25045184  0.55356746  0.05225662    -0.11300
H431        H  0.28674175  0.58062891  0.09716597     0.08400
H432        H  0.20992634  0.59407088  0.08116896     0.05900
H433        H  0.25127722  0.54006575  0.03704334     0.05800
O434        O  0.98246643  0.95928358  0.52323501    -0.80500
O435        O  0.01731479  0.03629086  0.52804500    -0.80500
O436        O  0.04275883  0.98940885  0.51406497    -0.80500
O437        O  0.94723549  0.01844749  0.52270448    -0.80400
O438        O  0.05879218  0.02604706  0.50095418    -0.80600
O439        O  0.94003457  0.98051413  0.50613657    -0.80500
O440        O  0.98382965  0.05655122  0.51589760    -0.80500
O441        O  0.01714196  0.94590964  0.50849909    -0.80500
C442        C  0.99937812  0.94263532  0.52310879     1.09200
C443        C  0.00365803  0.05582793  0.52865470     1.09100
C444        C  0.06112656  0.00510299  0.51257272     1.09200
C445        C  0.93361635  0.99889986  0.52038803     1.09100
O446        O  0.96005507  0.98448580  0.45652577    -0.80500
O447        O  0.03472082  0.00847908  0.45989404    -0.80600
O448        O  0.00072985  0.95529167  0.46117195    -0.80500
O449        O  0.98143229  0.04716774  0.46327047    -0.80500
O450        O  0.01888362  0.05431981  0.47844329    -0.80500
O451        O  0.96643345  0.93988146  0.47900542    -0.80500
O452        O  0.94029384  0.01712348  0.47114151    -0.80400
O453        O  0.04799147  0.97171936  0.46910895    -0.80500
Co454      Co  0.97312145  0.97346472  0.48958044     1.51500
Co455      Co  0.02433754  0.02060726  0.49464369     1.51700
Co456      Co  0.01734997  0.97639813  0.48856940     1.51600
Co457      Co  0.96512886  0.03307339  0.49330571     1.51500
O458        O  0.99089738  0.00509705  0.49391150    -1.42400
C459        C  0.94078730  0.99804168  0.45709563     1.09100
C460        C  0.05167896  0.99175753  0.45773847     1.09200
C461        C  0.98542909  0.93685982  0.46470759     1.09200
C462        C  0.00051747  0.06090305  0.46491697     1.09100
C463        C  0.03087730  0.82307780  0.45902280    -0.11200
C464        C  0.02448831  0.83896737  0.43893332     0.06000
C465        C  0.03045090  0.83126515  0.41436927    -0.09900
C466        C  0.04300741  0.80850757  0.41002541    -0.11600
C467        C  0.05020939  0.79293593  0.43011980    -0.01400
C468        C  0.04366308  0.80037340  0.45471054    -0.10500
C469        C  0.01262318  0.86394891  0.44356736     0.06000
H470        H  0.02542606  0.84290224  0.39851471     0.07900
H471        H  0.04716040  0.80313285  0.39081141     0.11400
H472        H  0.04906547  0.78905658  0.47062762     0.11600
H473        H  0.02668837  0.82864567  0.47827422     0.07900
C474        C  0.99276556  0.86642192  0.46064031    -0.11200
C475        C  0.98256609  0.89011224  0.46600696    -0.10500
C476        C  0.99221238  0.91185758  0.45470905    -0.01400
C477        C  0.01184357  0.90942176  0.43732632    -0.11600
C478        C  0.02173640  0.88567937  0.43160257    -0.10000
H479        H  0.98533257  0.85003037  0.47007388     0.07900
H480        H  0.96793164  0.89151548  0.48001669     0.11600
H481        H  0.02008834  0.92592730  0.42874853     0.11400
H482        H  0.03718943  0.88440635  0.41856751     0.07900
C483        C  0.22719941  0.63132806  0.14605873    -0.11200
C484        C  0.24749908  0.64779797  0.14893217     0.06000
C485        C  0.26774055  0.64520630  0.13231285    -0.09900
C486        C  0.26791772  0.62652590  0.11368360    -0.11600
C487        C  0.24780735  0.60984741  0.11102617    -0.01400
C488        C  0.22735899  0.61265025  0.12733127    -0.10500
C489        C  0.24773102  0.66741216  0.16925426     0.06000
H490        H  0.28345606  0.65785769  0.13345415     0.07900
H491        H  0.28370659  0.62536116  0.10113220     0.11400
H492        H  0.21161931  0.60000594  0.12600149     0.11600
H493        H  0.21145950  0.63246501  0.15859383     0.07900
C494        C  0.22585072  0.68009726  0.17656102    -0.11200
C495        C  0.22624469  0.69854037  0.19550150    -0.10500
C496        C  0.24857567  0.70492898  0.20758231    -0.01400
C497        C  0.27041145  0.69220744  0.20035292    -0.11600
C498        C  0.27000057  0.67368479  0.18154925    -0.10000
H499        H  0.20839199  0.67611706  0.16732431     0.07900
H500        H  0.20914832  0.70813452  0.20037320     0.11600
H501        H  0.28785771  0.69628550  0.20955705     0.11400
H502        H  0.28710957  0.66402458  0.17692909     0.07900
C503        C  0.15728400  0.73245364  0.36520254    -0.11200
C504        C  0.15417810  0.74635715  0.34296114     0.06000
C505        C  0.13237511  0.76070898  0.34012753    -0.09900
C506        C  0.11415730  0.76115749  0.35905101    -0.11600
C507        C  0.11720870  0.74718590  0.38133238    -0.01400
C508        C  0.13909254  0.73287235  0.38409590    -0.10500
C509        C  0.17372468  0.74593274  0.32295464     0.06000
H510        H  0.12949365  0.77181567  0.32331049     0.07900
H511        H  0.09749170  0.77216357  0.35601158     0.11400
H512        H  0.14238650  0.72214058  0.40106240     0.11600
H513        H  0.17372492  0.72104909  0.36790885     0.07900
C514        C  0.19900801  0.74742387  0.32929238    -0.11200
C515        C  0.21743838  0.74696027  0.31063029    -0.10500
C516        C  0.21110060  0.74470620  0.28512272    -0.01400
C517        C  0.18582957  0.74305147  0.27874635    -0.11600
C518        C  0.16735318  0.74385016  0.29741560    -0.10000
H519        H  0.20456064  0.74924681  0.34874384     0.07900
H520        H  0.23669397  0.74804997  0.31617102     0.11600
H521        H  0.18034297  0.74143087  0.25924416     0.11400
H522        H  0.14807229  0.74245754  0.29190740     0.07900
C523        C  0.33438645  0.79018603  0.24347714    -0.11200
C524        C  0.32951848  0.81564879  0.24929456     0.06000
C525        C  0.30490322  0.82269714  0.25494488    -0.09900
C526        C  0.28569097  0.80490124  0.25463971    -0.11600
C527        C  0.29046907  0.77949351  0.24855522    -0.01400
C528        C  0.31511034  0.77239855  0.24300452    -0.10500
C529        C  0.34988682  0.83485933  0.24918887     0.06000
H530        H  0.30047637  0.84204246  0.25978987     0.07900
H531        H  0.26696098  0.81116377  0.25878104     0.11400
H532        H  0.31957489  0.75294414  0.23848082     0.11600
H533        H  0.35302688  0.78410263  0.23887287     0.07900
C534        C  0.37342949  0.82937245  0.25922995    -0.11200
C535        C  0.39223107  0.84769157  0.25957141    -0.10500
C536        C  0.38809144  0.87186522  0.24948687    -0.01400
C537        C  0.36471968  0.87721240  0.23911746    -0.11600
C538        C  0.34582523  0.85905764  0.23909854    -0.10000
H539        H  0.37719216  0.81098636  0.26732620     0.07900
H540        H  0.41005099  0.84297031  0.26762656     0.11600
H541        H  0.36085536  0.89573551  0.23138553     0.11400
H542        H  0.32813831  0.86387290  0.23099854     0.07900
C543        C  0.83867017  0.93406698  0.45338150    -0.11200
C544        C  0.84244877  0.95826742  0.44336786     0.06000
C545        C  0.82157244  0.97184734  0.43474875    -0.09900
C546        C  0.79778527  0.96103952  0.43523343    -0.11600
C547        C  0.79442090  0.93644082  0.44422032    -0.01400
C548        C  0.81502376  0.92326098  0.45369103    -0.10500
C549        C  0.86798155  0.96931309  0.44242643     0.06000
H550        H  0.82371828  0.99046869  0.42682040     0.07900
H551        H  0.78226284  0.97139171  0.42742720     0.11400
H552        H  0.81288071  0.90429255  0.46065185     0.11600
H553        H  0.85407963  0.92328033  0.46089670     0.07900
C554        C  0.88906223  0.95407181  0.43780853    -0.11200
C555        C  0.91314502  0.96391863  0.43999515    -0.10500
C556        C  0.91670050  0.98927741  0.44670327    -0.01400
C557        C  0.89560272  0.00488519  0.44935473    -0.11600
C558        C  0.87164610  0.99502292  0.44742809    -0.10000
H559        H  0.88696612  0.93426851  0.43330027     0.07900
H560        H  0.92889978  0.95128617  0.43806864     0.11600
H561        H  0.89754210  0.02445169  0.45475350     0.11400
H562        H  0.85599891  0.00735793  0.45132449     0.07900
C563        C  0.64692004  0.73288493  0.17449978    -0.11200
C564        C  0.66923313  0.74628269  0.17180755     0.06000
C565        C  0.67271174  0.76114864  0.15020927    -0.09900
C566        C  0.65443130  0.76224054  0.13161031    -0.11600
C567        C  0.63231116  0.74844706  0.13412197    -0.01400
C568        C  0.62868119  0.73394619  0.15593442    -0.10500
C569        C  0.68892360  0.74436891  0.19125355     0.06000
H570        H  0.68954728  0.77193776  0.14771841     0.07900
H571        H  0.65787416  0.77347400  0.11495270     0.11400
H572        H  0.61177155  0.72342160  0.15862509     0.11600
H573        H  0.64370706  0.72104464  0.19084023     0.07900
C574        C  0.68263582  0.74397335  0.21693302    -0.11200
C575        C  0.70106143  0.74165024  0.23520144    -0.10500
C576        C  0.72615866  0.73949983  0.22824870    -0.01400
C577        C  0.73251001  0.73982715  0.20263157    -0.11600
C578        C  0.71409389  0.74236316  0.18433232    -0.10000
H579        H  0.66349395  0.74571378  0.22290230     0.07900
H580        H  0.69565828  0.74132501  0.25487622     0.11600
H581        H  0.75175281  0.73840070  0.19680618     0.11400
H582        H  0.71953528  0.74232419  0.16470513     0.07900
C583        C  0.85170578  0.61272317  0.26207234    -0.11200
C584        C  0.85564576  0.63695344  0.25217433     0.06000
C585        C  0.87734689  0.64144287  0.23810105    -0.09900
C586        C  0.89489223  0.62223572  0.23428381    -0.11600
C587        C  0.89119969  0.59822765  0.24474716    -0.01400
C588        C  0.86932338  0.59363996  0.25846119    -0.10500
C589        C  0.83702474  0.65733195  0.25636626     0.06000
H590        H  0.88072660  0.65984379  0.22994927     0.07900
H591        H  0.91163327  0.62631944  0.22381943     0.11400
H592        H  0.86593351  0.57520372  0.26664350     0.11600
H593        H  0.83527450  0.60870171  0.27305188     0.07900
C594        C  0.81155085  0.65232229  0.25401798    -0.11200
C595        C  0.79401311  0.67158458  0.25700796    -0.10500
C596        C  0.80153567  0.69632379  0.26265469    -0.01400
C597        C  0.82693838  0.70124550  0.26577887    -0.11600
C598        C  0.84454950  0.68199079  0.26249910    -0.10000
H599        H  0.80514248  0.63351256  0.24922230     0.07900
H600        H  0.77458450  0.66721317  0.25481075     0.11600
H601        H  0.83324624  0.72018887  0.27013209     0.11400
H602        H  0.86398755  0.68632133  0.26477414     0.07900
C603        C  0.73826861  0.79041367  0.34132116    -0.11200
C604        C  0.75864701  0.80544760  0.34795265     0.06000
C605        C  0.78132550  0.80195012  0.33507552    -0.09900
C606        C  0.78332965  0.78413036  0.31570162    -0.11600
C607        C  0.76270810  0.76966402  0.30871551    -0.01400
C608        C  0.74023568  0.77280277  0.32188402    -0.10500
C609        C  0.75600868  0.82517396  0.36770518     0.06000
H610        H  0.79723898  0.81343970  0.33950649     0.07900
H611        H  0.80084041  0.78221027  0.30559276     0.11400
H612        H  0.72416869  0.76167791  0.31701260     0.11600
H613        H  0.72067510  0.79229152  0.35117058     0.07900
C614        C  0.73434775  0.84000159  0.36916827    -0.11200
C615        C  0.73220969  0.85931838  0.38695882    -0.10500
C616        C  0.75162371  0.86424607  0.40383069    -0.01400
C617        C  0.77296111  0.84885005  0.40286966    -0.11600
C618        C  0.77518127  0.82966137  0.38493108    -0.10000
H619        H  0.71937967  0.83726074  0.35599688     0.07900
H620        H  0.71569083  0.87101246  0.38679553     0.11600
H621        H  0.78806787  0.85170193  0.41589371     0.11400
H622        H  0.79188726  0.81827656  0.38460219     0.07900
C623        C  0.82299868  0.01858445  0.57421830    -0.11200
C624        C  0.83266286  0.01779458  0.54971516     0.06000
C625        C  0.81819904  0.02709896  0.52984221    -0.09900
C626        C  0.79488819  0.03791397  0.53451761    -0.11600
C627        C  0.78556693  0.03951704  0.55916460    -0.01400
C628        C  0.79963544  0.02920048  0.57888160    -0.10500
C629        C  0.85850496  0.00925883  0.54504107     0.06000
H630        H  0.82541016  0.02701930  0.51080448     0.07900
H631        H  0.78468464  0.04599337  0.51904568     0.11400
H632        H  0.79277741  0.02985503  0.59800575     0.11600
H633        H  0.83373477  0.01135935  0.58981804     0.07900
C634        C  0.87810104  0.01942188  0.55910757    -0.11200
C635        C  0.90279063  0.01469104  0.55222579    -0.10500
C636        C  0.90831727  0.99922174  0.53146423    -0.01400
C637        C  0.88867953  0.98753301  0.51860085    -0.11600
C638        C  0.86399127  0.99274631  0.52509681    -0.10000
H639        H  0.87432889  0.03234155  0.57450805     0.07900
H640        H  0.91749179  0.02400450  0.56234637     0.11600
H641        H  0.89233939  0.97571211  0.50225530     0.11400
H642        H  0.84923941  0.98463949  0.51407970     0.07900
C643        C  0.73859278  0.15422774  0.69394215    -0.11200
C644        C  0.74394236  0.16071729  0.66893501     0.06000
C645        C  0.74994353  0.18586623  0.66327538    -0.09900
C646        C  0.75048080  0.20414264  0.68223683    -0.11600
C647        C  0.74489769  0.19767474  0.70721188    -0.01400
C648        C  0.73903072  0.17250218  0.71286288    -0.10500
C649        C  0.74304538  0.14133061  0.64882061     0.06000
H650        H  0.75438143  0.19135891  0.64421668     0.07900
H651        H  0.75487112  0.22343486  0.67728801     0.11400
H652        H  0.73491918  0.16690381  0.73195715     0.11600
H653        H  0.73369148  0.13506689  0.69883277     0.07900
C654        C  0.75295760  0.11712071  0.65279414    -0.11200
C655        C  0.75206068  0.09885809  0.63384802    -0.10500
C656        C  0.74111509  0.10438910  0.61057733    -0.01400
C657        C  0.73108105  0.12855057  0.60666794    -0.11600
C658        C  0.73208677  0.14683913  0.62555903    -0.10000
H659        H  0.76170058  0.11240485  0.67045833     0.07900
H660        H  0.75981223  0.08036179  0.63743461     0.11600
H661        H  0.72280236  0.13344484  0.58882926     0.11400
H662        H  0.72407039  0.16523033  0.62205085     0.07900
C663        C  0.66276555  0.23279471  0.79716870    -0.11200
C664        C  0.66950651  0.23481786  0.82258476     0.06000
C665        C  0.69478604  0.23701995  0.82868947    -0.09900
C666        C  0.71291107  0.23718202  0.80990415    -0.11600
C667        C  0.70621869  0.23509419  0.78454760    -0.01400
C668        C  0.68099420  0.23279291  0.77831617    -0.10500
C669        C  0.65049605  0.23472201  0.84289073     0.06000
H670        H  0.70057741  0.23897222  0.84804538     0.07900
H671        H  0.73222247  0.23877002  0.81521143     0.11400
H672        H  0.67538244  0.23130911  0.75885747     0.11600
H673        H  0.64347299  0.23092077  0.79190944     0.07900
C674        C  0.62822287  0.24845158  0.84062523    -0.11200
C675        C  0.61135026  0.24971302  0.86072695    -0.10500
C676        C  0.61640565  0.23725958  0.88346683    -0.01400
C677        C  0.63846809  0.22310272  0.88536513    -0.11600
C678        C  0.65513872  0.22172056  0.86531675    -0.10000
H679        H  0.62418553  0.25876237  0.82358936     0.07900
H680        H  0.59437688  0.26051646  0.85846553     0.11600
H681        H  0.64324277  0.21358211  0.90259662     0.11400
H682        H  0.67195480  0.21062564  0.86752936     0.07900
C683        C  0.86113507  0.32715139  0.76639924    -0.11200
C684        C  0.83892205  0.33112788  0.75318933     0.06000
C685        C  0.83526142  0.35435706  0.74103428    -0.09900
C686        C  0.85353895  0.37294470  0.74170629    -0.11600
C687        C  0.87601998  0.36872364  0.75432175    -0.01400
C688        C  0.87950707  0.34572917  0.76695042    -0.10500
C689        C  0.81967399  0.31114099  0.75178769     0.06000
H690        H  0.81853993  0.35797132  0.73051005     0.07900
H691        H  0.85014298  0.39061109  0.73205211     0.11400
H692        H  0.89668672  0.34182328  0.77662465     0.11600
H693        H  0.86437990  0.30960374  0.77630014     0.07900
C694        C  0.82642809  0.28559804  0.74914983    -0.11200
C695        C  0.80821325  0.26691994  0.74742629    -0.10500
C696        C  0.78295256  0.27339765  0.74849414    -0.01400
C697        C  0.77618135  0.29884640  0.75111760    -0.11600
C698        C  0.79433129  0.31750579  0.75270854    -0.10000
H699        H  0.84575010  0.28009316  0.74805829     0.07900
H700        H  0.81385587  0.24734727  0.74557327     0.11600
H701        H  0.75682908  0.30427711  0.75186046     0.11400
H702        H  0.78846508  0.33693182  0.75501925     0.07900
C703        C  0.33851008  0.25487183  0.20050611    -0.11200
C704        C  0.33452237  0.25867400  0.17464215     0.06000
C705        C  0.31005398  0.26253689  0.16632474    -0.09900
C706        C  0.29011484  0.26256898  0.18330670    -0.11600
C707        C  0.29409751  0.25856096  0.20910111    -0.01400
C708        C  0.31852976  0.25472541  0.21746859    -0.10500
C709        C  0.35576462  0.25843128  0.15646934     0.06000
H710        H  0.30627558  0.26580564  0.14654644     0.07900
H711        H  0.27153218  0.26534907  0.17624322     0.11400
H712        H  0.32224693  0.25174902  0.23733005     0.11600
H713        H  0.35701857  0.25159379  0.20754869     0.07900
C714        C  0.37861323  0.26959059  0.16263550    -0.11200
C715        C  0.39853335  0.26929107  0.14559201    -0.10500
C716        C  0.39616503  0.25758178  0.12198131    -0.01400
C717        C  0.37335683  0.24642221  0.11578901    -0.11600
C718        C  0.35338056  0.24691198  0.13273521    -0.10000
H719        H  0.38106073  0.27890979  0.18068011     0.07900
H720        H  0.41584539  0.27791138  0.15093301     0.11600
H721        H  0.37087876  0.23742979  0.09760553     0.11400
H722        H  0.33618955  0.23793016  0.12742318     0.07900
C723        C  0.20231322  0.33982757  0.24083286    -0.11200
C724        C  0.17692117  0.33375695  0.24238040     0.06000
C725        C  0.17010904  0.30814644  0.24251664    -0.09900
C726        C  0.18824025  0.28915367  0.24182438    -0.11600
C727        C  0.21359777  0.29533020  0.24078075    -0.01400
C728        C  0.22038992  0.32084984  0.24000935    -0.10500
C729        C  0.15779986  0.35413627  0.24410274     0.06000
H730        H  0.15074207  0.30272520  0.24383322     0.07900
H731        H  0.18248058  0.26961068  0.24226746     0.11400
H732        H  0.23980952  0.32618028  0.23937599     0.11600
H733        H  0.20823742  0.35923896  0.24020758     0.07900
C734        C  0.16240405  0.37627216  0.25793897    -0.11200
C735        C  0.14483191  0.39576367  0.25897429    -0.10500
C736        C  0.12209636  0.39357195  0.24628874    -0.01400
C737        C  0.11725223  0.37117316  0.23295807    -0.11600
C738        C  0.13487397  0.35176881  0.23178728    -0.10000
H739        H  0.17964159  0.37857060  0.26808225     0.07900
H740        H  0.14926152  0.41269922  0.26929357     0.11600
H741        H  0.09971105  0.36855694  0.22335921     0.11400
H742        H  0.13070093  0.33512656  0.22085932     0.07900
C743        C  0.10196784  0.02965328  0.42683762    -0.11200
C744        C  0.12388053  0.01923037  0.43692230     0.06000
C745        C  0.12183288  0.99693170  0.45121145    -0.09900
C746        C  0.09839990  0.98628048  0.45618915    -0.11600
C747        C  0.07650246  0.99795624  0.44725618    -0.01400
C748        C  0.07873719  0.01922848  0.43204805    -0.10500
C749        C  0.14839908  0.03229283  0.43332044     0.06000
H750        H  0.13807576  0.98844790  0.45961103     0.07900
H751        H  0.09734706  0.97002857  0.46843280     0.11400
H752        H  0.06225260  0.02859734  0.42505381     0.11600
H753        H  0.10258112  0.04635693  0.41523625     0.07900
C754        C  0.14955879  0.05879741  0.43180634    -0.11200
C755        C  0.17225958  0.07117482  0.42831527    -0.10500
C756        C  0.19467745  0.05758732  0.42640508    -0.01400
C757        C  0.19372116  0.03116340  0.42843878    -0.11600
C758        C  0.17089804  0.01868114  0.43171806    -0.10000
H759        H  0.13293444  0.07016914  0.43365906     0.07900
H760        H  0.17229141  0.09159943  0.42722911     0.11600
H761        H  0.21055791  0.02006392  0.42676039     0.11400
H762        H  0.17089775  0.99832495  0.43249078     0.07900
C763        C  0.22493312  0.18689940  0.30471916    -0.11200
C764        C  0.24574253  0.18064602  0.31934894     0.06000
C765        C  0.26820311  0.19339221  0.31480971    -0.09900
C766        C  0.26983071  0.21186543  0.29612054    -0.11600
C767        C  0.24899030  0.21813860  0.28157550    -0.01400
C768        C  0.22653275  0.20545180  0.28610975    -0.10500
C769        C  0.24406141  0.16083618  0.33914189     0.06000
H770        H  0.28451951  0.18936163  0.32599714     0.07900
H771        H  0.28724774  0.22155503  0.29333745     0.11400
H772        H  0.21024434  0.20963738  0.27500559     0.11600
H773        H  0.20750086  0.17719727  0.30738794     0.07900
C774        C  0.22272729  0.15857816  0.35435983    -0.11200
C775        C  0.22132988  0.14007251  0.37309125    -0.10500
C776        C  0.24124639  0.12338498  0.37705034    -0.01400
C777        C  0.26241334  0.12545779  0.36155985    -0.11600
C778        C  0.26383367  0.14395017  0.34294968    -0.10000
H779        H  0.20728001  0.17144392  0.35214609     0.07900
H780        H  0.20491536  0.13919694  0.38478892     0.11600
H781        H  0.27790292  0.11254037  0.36363487     0.11400
H782        H  0.28032601  0.14476924  0.33125783     0.07900
C783        C  0.97455809  0.41721402  0.88718806    -0.11200
C784        C  0.98407074  0.42839066  0.86521398     0.06000
C785        C  0.00336624  0.44601477  0.86746746    -0.09900
C786        C  0.01184344  0.45349685  0.89114341    -0.11600
C787        C  0.00100497  0.44377028  0.91319020    -0.01400
C788        C  0.98282068  0.42492575  0.91091520    -0.10500
C789        C  0.97256894  0.42319571  0.84031643     0.06000
H790        H  0.01133390  0.45468593  0.85089111     0.07900
H791        H  0.02572371  0.46818718  0.89212689     0.11400
H792        H  0.97399175  0.41713859  0.92748887     0.11600
H793        H  0.95960381  0.40361044  0.88610740     0.07900
C794        C  0.96560254  0.39863140  0.83351905    -0.11200
C795        C  0.95308717  0.39413972  0.81097059    -0.10500
C796        C  0.94698866  0.41413564  0.79470140    -0.01400
C797        C  0.95460508  0.43861393  0.80113623    -0.11600
C798        C  0.96724028  0.44309758  0.82367481    -0.10000
H799        H  0.96971970  0.38284860  0.84576502     0.07900
H800        H  0.94792448  0.37496881  0.80636182     0.11600
H801        H  0.94997042  0.45446312  0.78919371     0.11400
H802        H  0.97203408  0.46228909  0.82852797     0.07900
C803        C  0.99076617  0.54849344  0.16780311    -0.11200
C804        C  0.97635080  0.54228115  0.14660389     0.06000
C805        C  0.95064997  0.53870674  0.15005687    -0.09900
C806        C  0.93956806  0.54226000  0.17364508    -0.11600
C807        C  0.95393088  0.54893894  0.19456488    -0.01400
C808        C  0.97968330  0.55157375  0.19152478    -0.10500
C809        C  0.98790951  0.53982245  0.12102698     0.06000
H810        H  0.93896008  0.53317171  0.13449538     0.07900
H811        H  0.91968552  0.53986381  0.17558511     0.11400
H812        H  0.99113998  0.55691975  0.20738032     0.11600
H813        H  0.01048208  0.55169923  0.16600585     0.07900
C814        C  0.01227549  0.53060686  0.11800367    -0.11200
C815        C  0.02270369  0.52755920  0.09403416    -0.10500
C816        C  0.00899368  0.53343954  0.07235892    -0.01400
C817        C  0.98492118  0.54322185  0.07528979    -0.11600
C818        C  0.97455089  0.54649893  0.09927405    -0.10000
H819        H  0.02310700  0.52485309  0.13412112     0.07900
H820        H  0.04115083  0.51957667  0.09247589     0.11600
H821        H  0.97389539  0.54803506  0.05899868     0.11400
H822        H  0.95604345  0.55426030  0.10070259     0.07900
C823        C  0.00033935  0.46462078  0.12459156    -0.11200
C824        C  0.02046724  0.44872215  0.13011900     0.06000
C825        C  0.03304546  0.43652529  0.11033363    -0.09900
C826        C  0.02684141  0.44158137  0.08540777    -0.11600
C827        C  0.00761648  0.45852782  0.07979400    -0.01400
C828        C  0.99372159  0.46918978  0.09959320    -0.10500
C829        C  0.02987072  0.44616245  0.15610418     0.06000
H830        H  0.04868898  0.42432756  0.11409821     0.07900
H831        H  0.03798457  0.43330890  0.07050857     0.11400
H832        H  0.97908663  0.48268341  0.09578205     0.11600
H833        H  0.99035703  0.47415903  0.13951229     0.07900
C834        C  0.03527892  0.46760304  0.17065835    -0.11200
C835        C  0.04789687  0.46520426  0.19353354    -0.10500
C836        C  0.05512645  0.44127304  0.20228731    -0.01400
C837        C  0.04817258  0.41984005  0.18837291    -0.11600
C838        C  0.03592228  0.42226533  0.16547946    -0.10000
H839        H  0.03090647  0.48630475  0.16370073     0.07900
H840        H  0.05296228  0.48208039  0.20374199     0.11600
H841        H  0.05270062  0.40107949  0.19492644     0.11400
H842        H  0.03166447  0.40547218  0.15477812     0.07900
C843        C  0.18170609  0.55233290  0.00516853    -0.11200
C844        C  0.15895266  0.55117174  0.01834968     0.06000
C845        C  0.15935698  0.55375014  0.04462600    -0.09900
C846        C  0.18160527  0.55792865  0.05738541    -0.11600
C847        C  0.20429301  0.55959093  0.04425215    -0.01400
C848        C  0.20408856  0.55646659  0.01802137    -0.10500
C849        C  0.13488000  0.54694754  0.00501613     0.06000
H850        H  0.14233014  0.55222286  0.05561006     0.07900
H851        H  0.18109633  0.55971268  0.07754940     0.11400
H852        H  0.22123154  0.55788609  0.00723755     0.11600
H853        H  0.18214099  0.55059657  0.98506325     0.07900
C854        C  0.13333085  0.53040664  0.98434708    -0.11200
C855        C  0.11023756  0.52463011  0.97363862    -0.10500
C856        C  0.08820386  0.53504735  0.98347652    -0.01400
C857        C  0.08988298  0.55247297  0.00328371    -0.11600
C858        C  0.11290460  0.55850207  0.01378541    -0.10000
H859        H  0.14961311  0.52097673  0.97731871     0.07900
H860        H  0.10955016  0.51067669  0.95874333     0.11600
H861        H  0.07325778  0.56076756  0.01137423     0.11400
H862        H  0.11337011  0.57172599  0.02914552     0.07900
C863        C  0.88655768  0.44907309  0.03110852    -0.11200
C864        C  0.86771560  0.44226064  0.01421554     0.06000
C865        C  0.87273076  0.44417353  0.98823115    -0.09900
C866        C  0.89609897  0.45236854  0.97955289    -0.11600
C867        C  0.91498080  0.45834076  0.99670874    -0.01400
C868        C  0.90980084  0.45664300  0.02251826    -0.10500
C869        C  0.84315758  0.43355306  0.02424306     0.06000
H870        H  0.85874343  0.43912114  0.97458124     0.07900
H871        H  0.89943066  0.45388872  0.95956395     0.11400
H872        H  0.92358833  0.46188774  0.03632688     0.11600
H873        H  0.88333210  0.44903350  0.05115403     0.07900
C874        C  0.84196756  0.42061178  0.04725342    -0.11200
C875        C  0.81922901  0.41497689  0.05854540    -0.10500
C876        C  0.79662791  0.42105158  0.04675430    -0.01400
C877        C  0.79781170  0.43263781  0.02289519    -0.11600
C878        C  0.82071828  0.43907952  0.01195264    -0.10000
H879        H  0.85872169  0.41516252  0.05702712     0.07900
H880        H  0.81970334  0.40657214  0.07693526     0.11600
H881        H  0.78109149  0.43704943  0.01258973     0.11400
H882        H  0.82074371  0.44900622  0.99421028     0.07900
C883        C  0.96848050  0.17778457  0.45720079    -0.11200
C884        C  0.97465404  0.16195700  0.43682345     0.06000
C885        C  0.96855684  0.16998386  0.41244346    -0.09900
C886        C  0.95580332  0.19268122  0.40860321    -0.11600
C887        C  0.94879171  0.20807291  0.42900397    -0.01400
C888        C  0.95572559  0.20057290  0.45334200    -0.10500
C889        C  0.98520526  0.13622824  0.44110126     0.06000
H890        H  0.97336503  0.15850839  0.39630268     0.07900
H891        H  0.95129340  0.19814988  0.38955903     0.11400
H892        H  0.95050621  0.21188732  0.46948940     0.11600
H893        H  0.97257657  0.17204302  0.47628135     0.07900
C894        C  0.00301761  0.13170111  0.45989209    -0.11200
C895        C  0.01004149  0.10697654  0.46606416    -0.10500
C896        C  0.99914354  0.08633597  0.45379713    -0.01400
C897        C  0.98257150  0.09090211  0.43401369    -0.11600
C898        C  0.97580720  0.11551436  0.42765067    -0.10000
H899        H  0.01083223  0.14723227  0.47041934     0.07900
H900        H  0.02260743  0.10399440  0.48167467     0.11600
H901        H  0.97370936  0.07534542  0.42437093     0.11400
H902        H  0.96193446  0.11819537  0.41324870     0.07900
C903        C  0.69228305  0.16976725  0.26971976    -0.11200
C904        C  0.66743947  0.17511921  0.26371490     0.06000
C905        C  0.66117336  0.19982963  0.25645125    -0.09900
C906        C  0.67938936  0.21854900  0.25478867    -0.11600
C907        C  0.70432813  0.21309290  0.26036851    -0.01400
C908        C  0.71049579  0.18847212  0.26806008    -0.10500
C909        C  0.64825202  0.15490391  0.26420570     0.06000
H910        H  0.64228611  0.20455536  0.25150389     0.07900
H911        H  0.67387082  0.23740076  0.24916879     0.11400
H912        H  0.72948907  0.18350513  0.27229206     0.11600
H913        H  0.69771005  0.15098556  0.27568796     0.07900
C914        C  0.65376513  0.13058047  0.25504391    -0.11200
C915        C  0.63545160  0.11188944  0.25438932    -0.10500
C916        C  0.61130718  0.11696591  0.26310772    -0.01400
C917        C  0.60588325  0.14111725  0.27267055    -0.11600
C918        C  0.62411470  0.15987397  0.27311119    -0.10000
H919        H  0.67204370  0.12618098  0.24785247     0.07900
H920        H  0.64021864  0.09334582  0.24714857     0.11600
H921        H  0.58743593  0.14557299  0.27943307     0.11400
H922        H  0.61930005  0.17834115  0.28055644     0.07900
C923        C  0.73515502  0.29735341  0.17047798    -0.11200
C924        C  0.74211167  0.32254907  0.17468439     0.06000
C925        C  0.74826175  0.33005179  0.19920681    -0.09900
C926        C  0.74796823  0.31269682  0.21896084    -0.11600
C927        C  0.74143516  0.28737789  0.21472013    -0.01400
C928        C  0.73476662  0.27998745  0.19027088    -0.10500
C929        C  0.74349279  0.34083442  0.15353795     0.06000
H930        H  0.75385342  0.34928824  0.20305981     0.07900
H931        H  0.75283516  0.31910450  0.23757018     0.11400
H932        H  0.72978570  0.26060713  0.18629252     0.11600
H933        H  0.73002504  0.29107499  0.15184973     0.07900
C934        C  0.75394349  0.33370253  0.13030142    -0.11200
C935        C  0.75577783  0.35105884  0.11058289    -0.10500
C936        C  0.74695465  0.37582797  0.11357673    -0.01400
C937        C  0.73646906  0.38295424  0.13678368    -0.11600
C938        C  0.73484216  0.36569037  0.15655060    -0.10000
H939        H  0.76103089  0.31481740  0.12749413     0.07900
H940        H  0.76379248  0.34502059  0.09288669     0.11600
H941        H  0.72970921  0.40198715  0.13968997     0.11400
H942        H  0.72654856  0.37173958  0.17417618     0.07900
C943        C  0.81149573  0.27611853  0.31867588    -0.11200
C944        C  0.82173979  0.25349918  0.32784666     0.06000
C945        C  0.81249931  0.23052705  0.31851602    -0.09900
C946        C  0.79337476  0.23018809  0.30083081    -0.11600
C947        C  0.78297215  0.25275051  0.29186586    -0.01400
C948        C  0.79239909  0.27576178  0.30087400    -0.10500
C949        C  0.84193755  0.25368073  0.34702772     0.06000
H950        H  0.82024281  0.21281249  0.32458565     0.07900
H951        H  0.78692759  0.21210674  0.29390401     0.11400
H952        H  0.78463184  0.29348225  0.29457842     0.11600
H953        H  0.81787307  0.29420021  0.32564003     0.07900
C954        C  0.86044502  0.27237121  0.34668981    -0.11200
C955        C  0.87948758  0.27230517  0.36452249    -0.10500
C956        C  0.88065816  0.25344067  0.38299304    -0.01400
C957        C  0.86226231  0.23474567  0.38337482    -0.11600
C958        C  0.84304504  0.23495598  0.36573883    -0.10000
H959        H  0.86049893  0.28682652  0.33238263     0.07900
H960        H  0.89358711  0.28682159  0.36363681     0.11600
H961        H  0.86251186  0.22018170  0.39762474     0.11400
H962        H  0.82889897  0.22059349  0.36697626     0.07900
C963        C  0.04150115  0.58158889  0.84049008    -0.11200
C964        C  0.03262004  0.55703225  0.84423872     0.06000
C965        C  0.03508802  0.53931837  0.82468158    -0.09900
C966        C  0.04734397  0.54571576  0.80233680    -0.11600
C967        C  0.05725032  0.56999594  0.79902971    -0.01400
C968        C  0.05347002  0.58806141  0.81810756    -0.10500
C969        C  0.02212543  0.54957250  0.86896158     0.06000
H970        H  0.02857298  0.52020347  0.82711425     0.07900
H971        H  0.05008020  0.53127041  0.78818760     0.11400
H972        H  0.06019825  0.60714718  0.81595510     0.11600
H973        H  0.03942342  0.59577645  0.85505701     0.07900
C974        C  0.03397515  0.55695943  0.89126993    -0.11200
C975        C  0.02524471  0.54865471  0.91455748    -0.10500
C976        C  0.00448166  0.53274605  0.91610720    -0.01400
C977        C  0.99213175  0.52600022  0.89385798    -0.11600
C978        C  0.00091732  0.53429127  0.87052279    -0.10000
H979        H  0.05059708  0.56840549  0.89063811     0.07900
H980        H  0.03543584  0.55388024  0.93132795     0.11600
H981        H  0.97629844  0.51352363  0.89440214     0.11400
H982        H  0.99131066  0.52844661  0.85361987     0.07900
C983        C  0.17641841  0.97590710  0.54573719    -0.11200
C984        C  0.15317121  0.96542773  0.55154676     0.06000
C985        C  0.15254338  0.94297920  0.56564569    -0.09900
C986        C  0.17439203  0.93062895  0.57234600    -0.11600
C987        C  0.19772480  0.94078646  0.56623953    -0.01400
C988        C  0.19839121  0.96396446  0.55327116    -0.10500
C989        C  0.12963904  0.97677649  0.54201210     0.06000
H990        H  0.13517538  0.93462662  0.57131919     0.07900
H991        H  0.17272225  0.91264731  0.58190216     0.11400
H992        H  0.21580734  0.97290259  0.54874750     0.11600
H993        H  0.17780089  0.99308064  0.53480114     0.07900
C994        C  0.12696572  0.00298742  0.53785737    -0.11200
C995        C  0.10465721  0.01290870  0.52837927    -0.10500
C996        C  0.08467540  0.99676422  0.52356542    -0.01400
C997        C  0.08746072  0.97080818  0.52774534    -0.11600
C998        C  0.10957676  0.96096516  0.53642700    -0.10000
H999        H  0.14189499  0.01577175  0.54204087     0.07900
H1000       H  0.10302740  0.03300355  0.52501303     0.11600
H1001       H  0.07270799  0.95765660  0.52351751     0.11400
H1002       H  0.11093947  0.94068749  0.53815360     0.07900
C1003       C  0.18326122  0.69365680  0.75857973    -0.11200
C1004       C  0.18973132  0.66877660  0.76485166     0.06000
C1005       C  0.21488426  0.66265223  0.76823749    -0.09900
C1006       C  0.23324335  0.68091699  0.76488765    -0.11600
C1007       C  0.22678243  0.70568428  0.75808658    -0.01400
C1008       C  0.20157249  0.71189663  0.75528338    -0.10500
C1009       C  0.17030150  0.64911543  0.76625539     0.06000
H1010       H  0.22038169  0.64363606  0.77327416     0.07900
H1011       H  0.25250228  0.67552038  0.76704713     0.11400
H1012       H  0.19595502  0.73094099  0.75048396     0.11600
H1013       H  0.16406468  0.69887184  0.75553567     0.07900
C1014       C  0.14708052  0.65445824  0.77718350    -0.11200
C1015       C  0.12785158  0.63693324  0.77587783    -0.10500
C1016       C  0.13145604  0.61376174  0.76353463    -0.01400
C1017       C  0.15493104  0.60798306  0.75351409    -0.11600
C1018       C  0.17422354  0.62545377  0.75493444    -0.10000
H1019       H  0.14364538  0.67244434  0.78632051     0.07900
H1020       H  0.10985167  0.64186405  0.78371008     0.11600
H1021       H  0.15821836  0.59009159  0.74415774     0.11400
H1022       H  0.19182379  0.62088813  0.74622701     0.07900
C1023       C  0.27438376  0.80835667  0.67862015    -0.11200
C1024       C  0.25107962  0.82003222  0.67581983     0.06000
C1025       C  0.23101518  0.81159062  0.69046557    -0.09900
C1026       C  0.23430680  0.79221177  0.70787642    -0.11600
C1027       C  0.25773277  0.78092886  0.71101635    -0.01400
C1028       C  0.27769171  0.78905110  0.69608339    -0.10500
C1029       C  0.24786143  0.84100386  0.65773585     0.06000
H1030       H  0.21292652  0.82037657  0.68891575     0.07900
H1031       H  0.21869314  0.78654032  0.71938769     0.11400
H1032       H  0.29583381  0.78042457  0.69789121     0.11600
H1033       H  0.29007601  0.81407264  0.66719752     0.07900
C1034       C  0.26653194  0.85923614  0.65493391    -0.11200
C1035       C  0.26443064  0.87799970  0.63675992    -0.10500
C1036       C  0.24360823  0.87896361  0.62099383    -0.01400
C1037       C  0.22436693  0.86150355  0.62452357    -0.11600
C1038       C  0.22649626  0.84264750  0.64271883    -0.10000
H1039       H  0.28291040  0.85886226  0.66667040     0.07900
H1040       H  0.27930846  0.89154025  0.63472185     0.11600
H1041       H  0.20823698  0.86175021  0.61248586     0.11400
H1042       H  0.21184724  0.82878002  0.64436114     0.07900
C1043       C  0.34937855  0.75580025  0.79275408    -0.11200
C1044       C  0.34495765  0.75353082  0.81870272     0.06000
C1045       C  0.32073691  0.74827298  0.82710491    -0.09900
C1046       C  0.30137751  0.74550843  0.81003155    -0.11600
C1047       C  0.30573099  0.74783904  0.78412850    -0.01400
C1048       C  0.32993067  0.75304658  0.77562779    -0.10500
C1049       C  0.36538485  0.75628944  0.83714767     0.06000
H1050       H  0.31678040  0.74601799  0.84689495     0.07900
H1051       H  0.28283569  0.74184445  0.81718128     0.11400
H1052       H  0.33381873  0.75481418  0.75571596     0.11600
H1053       H  0.36782035  0.76000512  0.78571491     0.07900
C1054       C  0.38889916  0.74565766  0.83249840    -0.11200
C1055       C  0.40746089  0.74670473  0.85078517    -0.10500
C1056       C  0.40288735  0.75832391  0.87415142    -0.01400
C1057       C  0.37954211  0.76952958  0.87844491    -0.11600
C1058       C  0.36110898  0.76865124  0.86012886    -0.10000
H1059       H  0.39273027  0.73590036  0.81503293     0.07900
H1060       H  0.42534541  0.73824903  0.84666612     0.11600
H1061       H  0.37518317  0.77837871  0.89624809     0.11400
H1062       H  0.34333664  0.77741086  0.86411643     0.07900
C1063       C  0.55263907  0.82354793  0.04966431    -0.11200
C1064       C  0.57098067  0.84201746  0.04594269     0.06000
C1065       C  0.59544442  0.83664938  0.05319272    -0.09900
C1066       C  0.60144288  0.81346349  0.06420100    -0.11600
C1067       C  0.58301901  0.79515281  0.06868141    -0.01400
C1068       C  0.55856054  0.80047595  0.06103929    -0.10500
C1069       C  0.56441570  0.86710902  0.03532115     0.06000
H1070       H  0.60997810  0.85040144  0.05025170     0.07900
H1071       H  0.62057937  0.80991667  0.06919725     0.11400
H1072       H  0.54373835  0.78706934  0.06445953     0.11600
H1073       H  0.53361427  0.82728104  0.04447763     0.07900
C1074       C  0.54985165  0.86899498  0.01360923    -0.11200
C1075       C  0.54239280  0.89260731  0.00458757    -0.10500
C1076       C  0.54896072  0.91498447  0.01732578    -0.01400
C1077       C  0.56414720  0.91306077  0.03864469    -0.11600
C1078       C  0.57194120  0.88940647  0.04742666    -0.10000
H1079       H  0.54391064  0.85210291  0.00379173     0.07900
H1080       H  0.53047392  0.89321927  0.98826422     0.11600
H1081       H  0.56925360  0.92975592  0.04909401     0.11400
H1082       H  0.58300611  0.88848337  0.06429961     0.07900
C1083       C  0.46440490  0.87073648  0.01276431    -0.11200
C1084       C  0.44698481  0.86727491  0.99347838     0.06000
C1085       C  0.43418614  0.88840725  0.98417306    -0.09900
C1086       C  0.44066461  0.91264424  0.99197238    -0.11600
C1087       C  0.45986468  0.91615868  0.00936914    -0.01400
C1088       C  0.47072580  0.89498844  0.02074875    -0.10500
C1089       C  0.44483221  0.84260608  0.98041835     0.06000
H1090       H  0.42073749  0.88640374  0.96929180     0.07900
H1091       H  0.43199178  0.92869472  0.98289572     0.11400
H1092       H  0.48568471  0.89714854  0.03406728     0.11600
H1093       H  0.47428846  0.85473723  0.02057224     0.07900
C1094       C  0.46639844  0.82895430  0.97408125    -0.11200
C1095       C  0.46510642  0.80780015  0.95845840    -0.10500
C1096       C  0.44219037  0.79968267  0.94889143    -0.01400
C1097       C  0.42048792  0.81270057  0.95615152    -0.11600
C1098       C  0.42180116  0.83398196  0.97164675    -0.10000
H1099       H  0.48447157  0.83537796  0.98011310     0.07900
H1100       H  0.48220827  0.79845967  0.95306261     0.11600
H1101       H  0.40244201  0.80658635  0.94963701     0.11400
H1102       H  0.40487426  0.84396571  0.97639939     0.07900
C1103       C  0.56418676  0.01860143  0.12297406    -0.11200
C1104       C  0.55145106  0.01122435  0.14492103     0.06000
C1105       C  0.53307545  0.99245583  0.14278314    -0.09900
C1106       C  0.52650488  0.98269837  0.11920820    -0.11600
C1107       C  0.53797861  0.99175350  0.09728886    -0.01400
C1108       C  0.55736696  0.00918731  0.09948761    -0.10500
C1109       C  0.55614469  0.02441528  0.16941909     0.06000
H1110       H  0.52277263  0.98633557  0.15911164     0.07900
H1111       H  0.51118935  0.96954537  0.11801969     0.11400
H1112       H  0.56655571  0.01644629  0.08289479     0.11600
H1113       H  0.57898316  0.03232666  0.12378153     0.07900
C1114       C  0.56200494  0.05028171  0.16972200    -0.11200
C1115       C  0.56594473  0.06308621  0.19235684    -0.10500
C1116       C  0.56407941  0.05057807  0.21555332    -0.01400
C1117       C  0.55792197  0.02477338  0.21541306    -0.11600
C1118       C  0.55405046  0.01186418  0.19264518    -0.10000
H1119       H  0.56301789  0.06091644  0.15247483     0.07900
H1120       H  0.57002552  0.08304768  0.19164419     0.11600
H1121       H  0.55653469  0.01446635  0.23283875     0.11400
H1122       H  0.54973349  0.99193042  0.19329084     0.07900
C1123       C  0.44180012  0.97160324  0.11494263    -0.11200
C1124       C  0.45096140  0.98227811  0.13725791     0.06000
C1125       C  0.46579092  0.00408377  0.13543389    -0.09900
C1126       C  0.47188793  0.01426537  0.11169427    -0.11600
C1127       C  0.46351515  0.00250812  0.08933780    -0.01400
C1128       C  0.44803611  0.98152860  0.09148565    -0.10500
C1129       C  0.44553868  0.96978364  0.16194904     0.06000
H1130       H  0.47307318  0.01286675  0.15227520     0.07900
H1131       H  0.48429949  0.03028534  0.11082392     0.11400
H1132       H  0.44162917  0.97187774  0.07479455     0.11600
H1133       H  0.43061339  0.95473369  0.11549592     0.07900
C1134       C  0.42169104  0.96037585  0.16721622    -0.11200
C1135       C  0.41682158  0.94699564  0.18942676    -0.10500
C1136       C  0.43574896  0.94211522  0.20703055    -0.01400
C1137       C  0.45953769  0.95205804  0.20196750    -0.11600
C1138       C  0.46430760  0.96579074  0.17983884    -0.10000
H1139       H  0.40667146  0.96339196  0.15410093     0.07900
H1140       H  0.39811478  0.94051537  0.19273791     0.11600
H1141       H  0.47476917  0.94862236  0.21472144     0.11400
H1142       H  0.48293288  0.97252753  0.17632463     0.07900
C1143       C  0.43438442  0.16932932  0.04230103    -0.11200
C1144       C  0.45880462  0.16229462  0.03607068     0.06000
C1145       C  0.47805544  0.17945982  0.04107781    -0.09900
C1146       C  0.47306141  0.20275125  0.05277447    -0.11600
C1147       C  0.44860704  0.20965800  0.05949827    -0.01400
C1148       C  0.42933950  0.19269836  0.05357543    -0.10500
C1149       C  0.46412581  0.13688988  0.02506562     0.06000
H1150       H  0.49711912  0.17452848  0.03665423     0.07900
H1151       H  0.48848364  0.21498723  0.05717084     0.11400
H1152       H  0.41017010  0.19743818  0.05761307     0.11600
H1153       H  0.41909154  0.15675850  0.03829882     0.07900
C1154       C  0.45303180  0.11518989  0.03525416    -0.11200
C1155       C  0.45878502  0.09126116  0.02571631    -0.10500
C1156       C  0.47542697  0.08847136  0.00541531    -0.01400
C1157       C  0.48613216  0.11010773  0.99489136    -0.11600
C1158       C  0.48062679  0.13405026  0.00466823    -0.10000
H1159       H  0.44047146  0.11666646  0.05113662     0.07900
H1160       H  0.45063088  0.07491195  0.03464699     0.11600
H1161       H  0.49949571  0.10848870  0.97971000     0.11400
H1162       H  0.48933526  0.15036231  0.99633767     0.07900
C1163       C  0.57868089  0.10293488  0.97944443    -0.11200
C1164       C  0.56997501  0.12392684  0.99319671     0.06000
C1165       C  0.55552005  0.11977950  0.01477144    -0.09900
C1166       C  0.54872146  0.09532285  0.02160147    -0.11600
C1167       C  0.55587784  0.07449123  0.00659076    -0.01400
C1168       C  0.57149473  0.07847562  0.98600551    -0.10500
C1169       C  0.57408540  0.14996364  0.98365867     0.06000
H1170       H  0.54868133  0.13554556  0.02582127     0.07900
H1171       H  0.53632687  0.09302255  0.03741942     0.11400
H1172       H  0.57692862  0.06278225  0.97400758     0.11600
H1173       H  0.58968951  0.10555582  0.96266188     0.07900
C1174       C  0.59740602  0.15736022  0.97447886    -0.11200
C1175       C  0.60047346  0.18087351  0.96301126    -0.10500
C1176       C  0.58015733  0.19742572  0.96001126    -0.01400
C1177       C  0.55711868  0.19055324  0.97034603    -0.11600
C1178       C  0.55412015  0.16710093  0.98208160    -0.10000
H1179       H  0.61325166  0.14468800  0.97576842     0.07900
H1180       H  0.61862612  0.18582304  0.95577765     0.11600
H1181       H  0.54107938  0.20271150  0.96820351     0.11400
H1182       H  0.53589692  0.16185881  0.98880117     0.07900
C1183       C  0.00858179  0.12611334  0.54117840    -0.11200
C1184       C  0.03359338  0.12893642  0.54831044     0.06000
C1185       C  0.04756531  0.10670217  0.55236150    -0.09900
C1186       C  0.03736150  0.08270481  0.54795383    -0.11600
C1187       C  0.01272649  0.08008899  0.53974932    -0.01400
C1188       C  0.99830935  0.10217779  0.53721659    -0.10500
C1189       C  0.04510178  0.15478519  0.55084771     0.06000
H1190       H  0.06665156  0.10770238  0.55855875     0.07900
H1191       H  0.04917005  0.06624107  0.54985310     0.11400
H1192       H  0.97933034  0.10112907  0.53060505     0.11600
H1193       H  0.99705499  0.14237571  0.53741701     0.07900
C1194       C  0.03060967  0.17619912  0.55714477    -0.11200
C1195       C  0.04147334  0.20013084  0.55980767    -0.10500
C1196       C  0.06715076  0.20333112  0.55678082    -0.01400
C1197       C  0.08163529  0.18224979  0.55011904    -0.11600
C1198       C  0.07076372  0.15845401  0.54686856    -0.10000
H1199       H  0.01099398  0.17450297  0.56082228     0.07900
H1200       H  0.02990832  0.21599694  0.56537300     0.11600
H1201       H  0.10152134  0.18419112  0.54766524     0.11400
H1202       H  0.08266808  0.14293937  0.54123248     0.07900
C1203       C  0.45345814  0.01147767  0.88259484    -0.11200
C1204       C  0.45598929  0.03760966  0.87865078     0.06000
C1205       C  0.45893180  0.05314770  0.90000519    -0.09900
C1206       C  0.46052421  0.04282419  0.92421238    -0.11600
C1207       C  0.45971764  0.01658802  0.92778110    -0.01400
C1208       C  0.45549778  0.00113535  0.90672012    -0.10500
C1209       C  0.45564726  0.04847954  0.85252336     0.06000
H1210       H  0.46127091  0.07337383  0.89807336     0.07900
H1211       H  0.46423634  0.05524251  0.93983116     0.11400
H1212       H  0.45495286  0.98083632  0.90874099     0.11600
H1213       H  0.45036338  0.99878455  0.86694975     0.07900
C1214       C  0.46397474  0.03443488  0.83147246    -0.11200
C1215       C  0.46186766  0.04405998  0.80694225    -0.10500
C1216       C  0.45175708  0.06814888  0.80272711    -0.01400
C1217       C  0.44527783  0.08282790  0.82393355    -0.11600
C1218       C  0.44673633  0.07302487  0.84824323    -0.10000
H1219       H  0.47184632  0.01584134  0.83384041     0.07900
H1220       H  0.46732591  0.03217151  0.79123391     0.11600
H1221       H  0.43841402  0.10187731  0.82179198     0.11400
H1222       H  0.44005526  0.08468905  0.86365901     0.07900
C1223       C  0.12601540  0.43136880  0.96846654    -0.11200
C1224       C  0.14592374  0.44255591  0.98133940     0.06000
C1225       C  0.14067799  0.46003572  0.00050664    -0.09900
C1226       C  0.11605623  0.46666287  0.00622078    -0.11600
C1227       C  0.09618917  0.45637854  0.99249572    -0.01400
C1228       C  0.10146281  0.43836821  0.97381704    -0.10500
C1229       C  0.17194950  0.43686198  0.97360241     0.06000
H1230       H  0.15562777  0.46891290  0.01072286     0.07900
H1231       H  0.11268530  0.48093405  0.02040438     0.11400
H1232       H  0.08663959  0.43033863  0.96267997     0.11600
H1233       H  0.12951068  0.41805045  0.95343460     0.07900
C1234       C  0.17936625  0.41184139  0.96923435    -0.11200
C1235       C  0.20256364  0.40651037  0.95858237    -0.10500
C1236       C  0.21883649  0.42605490  0.95166035    -0.01400
C1237       C  0.21210431  0.45103671  0.95750757    -0.11600
C1238       C  0.18887615  0.45638653  0.96844446    -0.10000
H1239       H  0.16690692  0.39644976  0.97340320     0.07900
H1240       H  0.20740921  0.38699422  0.95482455     0.11600
H1241       H  0.22414411  0.46650550  0.95230044     0.11400
H1242       H  0.18359253  0.47585583  0.97154670     0.07900
C1243       C  0.13978266  0.23646821  0.65253392    -0.11200
C1244       C  0.16260469  0.24896085  0.64981679     0.06000
C1245       C  0.16716467  0.26262542  0.62763948    -0.09900
C1246       C  0.14951995  0.26330654  0.60845413    -0.11600
C1247       C  0.12699920  0.25025050  0.61088310    -0.01400
C1248       C  0.12220553  0.23698130  0.63324472    -0.10500
C1249       C  0.18192500  0.24728081  0.66963807     0.06000
H1250       H  0.18436686  0.27274295  0.62515564     0.07900
H1251       H  0.15375203  0.27369379  0.59137388     0.11400
H1252       H  0.10490521  0.22707095  0.63575719     0.11600
H1253       H  0.13572440  0.22567887  0.66942105     0.07900
C1254       C  0.17549641  0.24914450  0.69521904    -0.11200
C1255       C  0.19384657  0.24801007  0.71370832    -0.10500
C1256       C  0.21895218  0.24478894  0.70708915    -0.01400
C1257       C  0.22532341  0.24238445  0.68158316    -0.11600
C1258       C  0.20701269  0.24372410  0.66308146    -0.10000
H1259       H  0.15638440  0.25198768  0.70085874     0.07900
H1260       H  0.18838356  0.24974867  0.73335419     0.11600
H1261       H  0.24448393  0.24009149  0.67595615     0.11400
H1262       H  0.21251943  0.24184874  0.64353586     0.07900
C1263       C  0.35446117  0.13228221  0.75972959    -0.11200
C1264       C  0.35679737  0.15487123  0.74616079     0.06000
C1265       C  0.37901313  0.15958866  0.73309530    -0.09900
C1266       C  0.39863474  0.14228294  0.73382292    -0.11600
C1267       C  0.39654239  0.11993236  0.74782276    -0.01400
C1268       C  0.37416120  0.11504270  0.76060576    -0.10500
C1269       C  0.33624941  0.17360762  0.74582110     0.06000
H1270       H  0.38122177  0.17671969  0.72227340     0.07900
H1271       H  0.41566163  0.14670321  0.72400671     0.11400
H1272       H  0.37189040  0.09784448  0.77138921     0.11600
H1273       H  0.33761956  0.12822804  0.77005233     0.07900
C1274       C  0.31161226  0.16596249  0.74196851    -0.11200
C1275       C  0.29234635  0.18372741  0.74126926    -0.10500
C1276       C  0.29733389  0.20952143  0.74474922    -0.01400
C1277       C  0.32196827  0.21711726  0.74878288    -0.11600
C1278       C  0.34124007  0.19940220  0.74921572    -0.10000
H1279       H  0.30724704  0.14616468  0.73915761     0.07900
H1280       H  0.27359279  0.17732873  0.73840159     0.11600
H1281       H  0.32641671  0.23694248  0.75139164     0.11400
H1282       H  0.35996479  0.20577990  0.75245032     0.07900
C1283       C  0.24901252  0.32849769  0.79578280    -0.11200
C1284       C  0.25314269  0.32222827  0.82106425     0.06000
C1285       C  0.25830203  0.29703703  0.82731536    -0.09900
C1286       C  0.25960972  0.27852197  0.80863902    -0.11600
C1287       C  0.25554567  0.28481523  0.78336076    -0.01400
C1288       C  0.25012308  0.30995557  0.77713369    -0.10500
C1289       C  0.25304213  0.34205497  0.84072493     0.06000
H1290       H  0.26182293  0.29172016  0.84664009     0.07900
H1291       H  0.26355934  0.25928204  0.81394860     0.11400
H1292       H  0.24705113  0.31533592  0.75774786     0.11600
H1293       H  0.24484887  0.34773981  0.79047076     0.07900
C1294       C  0.26526935  0.36501498  0.83650219    -0.11200
C1295       C  0.26645867  0.38323679  0.85541193    -0.10500
C1296       C  0.25543901  0.37891596  0.87899679    -0.01400
C1297       C  0.24264526  0.35618926  0.88300707    -0.11600
C1298       C  0.24150701  0.33791259  0.86408245    -0.10000
H1299       H  0.27448032  0.36863371  0.81875660     0.07900
H1300       H  0.27613741  0.40067846  0.85161183     0.11600
H1301       H  0.23409787  0.35222243  0.90107694     0.11400
H1302       H  0.23174770  0.32045702  0.86773229     0.07900
C1303       C  0.84481325  0.57695370  0.96140286    -0.11200
C1304       C  0.85074915  0.55297102  0.97076011     0.06000
C1305       C  0.83299598  0.53368604  0.96853546    -0.09900
C1306       C  0.81033287  0.53799166  0.95612341    -0.11600
C1307       C  0.80465129  0.56187738  0.94593651    -0.01400
C1308       C  0.82204267  0.58142066  0.94954604    -0.10500
C1309       C  0.87594213  0.54788538  0.98135321     0.06000
H1310       H  0.83709530  0.51490893  0.97547157     0.07900
H1311       H  0.79777004  0.52235753  0.95374149     0.11400
H1312       H  0.81825542  0.60036398  0.94303194     0.11600
H1313       H  0.85788987  0.59227831  0.96318625     0.07900
C1314       C  0.89733092  0.55527028  0.96803636    -0.11200
C1315       C  0.92106799  0.54871690  0.97659149    -0.10500
C1316       C  0.92409867  0.53506689  0.99899602    -0.01400
C1317       C  0.90277935  0.52878921  0.01302259    -0.11600
C1318       C  0.87895228  0.53487603  0.00415599    -0.10000
H1319       H  0.89564052  0.56514401  0.95031311     0.07900
H1320       H  0.93704610  0.55348132  0.96513449     0.11600
H1321       H  0.90442704  0.51781682  0.03006667     0.11400
H1322       H  0.86285571  0.52903032  0.01487979     0.07900
C1323       C  0.96851399  0.82511198  0.53493043    -0.11200
C1324       C  0.97245867  0.84239953  0.55463793     0.06000
C1325       C  0.96573957  0.83511650  0.57909031    -0.09900
C1326       C  0.95504003  0.81145685  0.58372014    -0.11600
C1327       C  0.95016794  0.79439691  0.56392426    -0.01400
C1328       C  0.95740035  0.80157247  0.53947856    -0.10500
C1329       C  0.98231497  0.86830102  0.54944535     0.06000
H1330       H  0.96883147  0.84779550  0.59481736     0.07900
H1331       H  0.95059197  0.80662014  0.60289669     0.11400
H1332       H  0.95376856  0.78937742  0.52357392     0.11600
H1333       H  0.97317587  0.83016695  0.51583157     0.07900
C1334       C  0.00180253  0.87211952  0.53220589    -0.11200
C1335       C  0.00905978  0.89657267  0.52547591    -0.10500
C1336       C  0.99653434  0.91783543  0.53545584    -0.01400
C1337       C  0.97807180  0.91408987  0.55354754    -0.11600
C1338       C  0.97116520  0.88965334  0.56065570    -0.10000
H1339       H  0.01099211  0.85611417  0.52334526     0.07900
H1340       H  0.02319295  0.89873329  0.51113528     0.11600
H1341       H  0.96801071  0.93009204  0.56127523     0.11400
H1342       H  0.95606238  0.88746998  0.57386314     0.07900
C1343       C  0.74821627  0.69233292  0.82763339    -0.11200
C1344       C  0.75635077  0.66798146  0.82086472     0.06000
C1345       C  0.76255204  0.66333301  0.79559283    -0.09900
C1346       C  0.76103544  0.68255018  0.77768359    -0.11600
C1347       C  0.75342966  0.70706721  0.78449343    -0.01400
C1348       C  0.74674989  0.71162061  0.80968709    -0.10500
C1349       C  0.75837938  0.64750019  0.84000264     0.06000
H1350       H  0.76902289  0.64491262  0.78969346     0.07900
H1351       H  0.76589205  0.67814027  0.75839114     0.11400
H1352       H  0.74096029  0.73023757  0.81568790     0.11600
H1353       H  0.74290684  0.69649273  0.84684555     0.07900
C1354       C  0.76719311  0.65263180  0.86434303    -0.11200
C1355       C  0.76871589  0.63346464  0.88237414    -0.10500
C1356       C  0.76117280  0.60879794  0.87659326    -0.01400
C1357       C  0.75268954  0.60353472  0.85223848    -0.11600
C1358       C  0.75144502  0.62260254  0.83411189    -0.10000
H1359       H  0.77302805  0.67147407  0.86943268     0.07900
H1360       H  0.77520315  0.63803744  0.90107471     0.11600
H1361       H  0.74683262  0.58463165  0.84729530     0.11400
H1362       H  0.74443020  0.61796879  0.81566842     0.07900
C1363       C  0.83647463  0.74301893  0.69779439    -0.11200
C1364       C  0.83060994  0.74542318  0.67216856     0.06000
C1365       C  0.80557764  0.74910404  0.66550261    -0.09900
C1366       C  0.78694565  0.75034884  0.68392340    -0.11600
C1367       C  0.79283029  0.74775279  0.70946711    -0.01400
C1368       C  0.81780587  0.74407834  0.71618611    -0.10500
C1369       C  0.85045603  0.74445979  0.65245963     0.06000
H1370       H  0.80038780  0.75136301  0.64602105     0.07900
H1371       H  0.76784611  0.75293472  0.67816696     0.11400
H1372       H  0.82291321  0.74209136  0.73576537     0.11600
H1373       H  0.85546336  0.73994296  0.70362780     0.07900
C1374       C  0.87363248  0.75600891  0.65639522    -0.11200
C1375       C  0.89171148  0.75624926  0.63736611    -0.10500
C1376       C  0.88716423  0.74485840  0.61395711    -0.01400
C1377       C  0.86426480  0.73272677  0.61027281    -0.11600
C1378       C  0.84616211  0.73255221  0.62924210    -0.10000
H1379       H  0.87756425  0.76545893  0.67393764     0.07900
H1380       H  0.90931885  0.76546402  0.64096130     0.11600
H1381       H  0.86008212  0.72384773  0.59245413     0.11400
H1382       H  0.82874479  0.72311260  0.62568280     0.07900
C1383       C  0.54091911  0.96384077  0.82342685    -0.11200
C1384       C  0.56054814  0.96994857  0.83971905     0.06000
C1385       C  0.58497483  0.96487505  0.83167135    -0.09900
C1386       C  0.58960012  0.95346191  0.80832095    -0.11600
C1387       C  0.56995925  0.94649483  0.79234844    -0.01400
C1388       C  0.54553992  0.95223150  0.80009629    -0.10500
C1389       C  0.55549320  0.97993051  0.86561006     0.06000
H1390       H  0.60054549  0.96962050  0.84353429     0.07900
H1391       H  0.60872173  0.94993413  0.80284114     0.11400
H1392       H  0.52992535  0.94694126  0.78854739     0.11600
H1393       H  0.52185529  0.96715022  0.82913676     0.07900
C1394       C  0.53676334  0.99803303  0.87011107    -0.11200
C1395       C  0.53031051  0.00512608  0.89478902    -0.10500
C1396       C  0.54211273  0.99394738  0.91554409    -0.01400
C1397       C  0.56159599  0.97678991  0.91095435    -0.11600
C1398       C  0.56833689  0.97006273  0.88636292    -0.10000
H1399       H  0.52665378  0.00617145  0.85459200     0.07900
H1400       H  0.51493681  0.01808603  0.89764135     0.11600
H1401       H  0.57088697  0.96768059  0.92647955     0.11400
H1402       H  0.58272317  0.95595159  0.88367984     0.07900
C1403       C  0.63432246  0.83834855  0.73491862    -0.11200
C1404       C  0.65757732  0.84345943  0.74576685     0.06000
C1405       C  0.66147271  0.86754779  0.75623040    -0.09900
C1406       C  0.64253180  0.88576489  0.75618859    -0.11600
C1407       C  0.61924879  0.88052259  0.74555290    -0.01400
C1408       C  0.61545419  0.85662613  0.73473928    -0.10500
C1409       C  0.67754230  0.82371174  0.74638429     0.06000
H1410       H  0.67898923  0.87215988  0.76490176     0.07900
H1411       H  0.64616048  0.90413773  0.76444870     0.11400
H1412       H  0.59773167  0.85192883  0.72649833     0.11600
H1413       H  0.63070558  0.82017079  0.72633502     0.07900
C1414       C  0.67159408  0.79820261  0.75062634    -0.11200
C1415       C  0.69019786  0.77964312  0.75109510    -0.10500
C1416       C  0.71525257  0.78595800  0.74722723    -0.01400
C1417       C  0.72124853  0.81145433  0.74307961    -0.11600
C1418       C  0.70265947  0.83005326  0.74274765    -0.10000
H1419       H  0.65262520  0.79261621  0.75384224     0.07900
H1420       H  0.68485373  0.76015217  0.75415084     0.11600
H1421       H  0.74034158  0.81702505  0.74027409     0.11400
H1422       H  0.70799627  0.84946568  0.73921541     0.07900
C1423       C  0.47943876  0.34440000  0.09127827    -0.11200
C1424       C  0.48773746  0.35047203  0.06700470     0.06000
C1425       C  0.48535105  0.33227827  0.04790731    -0.09900
C1426       C  0.47412364  0.30889277  0.05278645    -0.11600
C1427       C  0.46523455  0.30292350  0.07699381    -0.01400
C1428       C  0.46864060  0.32089287  0.09628270    -0.10500
C1429       C  0.49778410  0.37604606  0.06133803     0.06000
H1430       H  0.49137428  0.33650851  0.02894574     0.07900
H1431       H  0.47164603  0.29588885  0.03731933     0.11400
H1432       H  0.46277869  0.31691357  0.11529879     0.11600
H1433       H  0.48131591  0.35792298  0.10648079     0.07900
C1434       C  0.48461679  0.39772963  0.06897341    -0.11200
C1435       C  0.49229205  0.42177185  0.06154382    -0.10500
C1436       C  0.51346094  0.42493642  0.04665436    -0.01400
C1437       C  0.52771082  0.40330553  0.04024498    -0.11600
C1438       C  0.51973278  0.37908063  0.04728072    -0.10000
H1439       H  0.46760598  0.39602936  0.07964218     0.07900
H1440       H  0.48088055  0.43792740  0.06647594     0.11600
H1441       H  0.54409743  0.40493686  0.02849486     0.11400
H1442       H  0.53034214  0.36269748  0.04127045     0.07900
C1443       C  0.56169583  0.33541254  0.93876828    -0.11200
C1444       C  0.53937167  0.33692761  0.95253670     0.06000
C1445       C  0.52791742  0.31428329  0.95991243    -0.09900
C1446       C  0.53868099  0.29084190  0.95386149    -0.11600
C1447       C  0.56130551  0.28940406  0.94047144    -0.01400
C1448       C  0.57263396  0.31215681  0.93317453    -0.10500
C1449       C  0.52891530  0.36211348  0.95975563     0.06000
H1450       H  0.51087790  0.31462669  0.97071412     0.07900
H1451       H  0.52912426  0.27386742  0.95956629     0.11400
H1452       H  0.59026686  0.31219665  0.92338572     0.11600
H1453       H  0.57092951  0.35230892  0.93223156     0.07900
C1454       C  0.54518350  0.38201430  0.96515370    -0.11200
C1455       C  0.53615743  0.40581817  0.97100775    -0.10500
C1456       C  0.51055173  0.41057447  0.97238050    -0.01400
C1457       C  0.49392372  0.39079517  0.96776947    -0.11600
C1458       C  0.50307907  0.36673857  0.96125369    -0.10000
H1459       H  0.56507143  0.37921792  0.96523179     0.07900
H1460       H  0.54952763  0.42043473  0.97524773     0.11600
H1461       H  0.47406365  0.39394080  0.96898929     0.11400
H1462       H  0.48998691  0.35189493  0.95714039     0.07900
C1463       C  0.61629166  0.47620290  0.05910161    -0.11200
C1464       C  0.63855415  0.48362153  0.04738458     0.06000
C1465       C  0.63805702  0.50397635  0.03047839    -0.09900
C1466       C  0.61566508  0.51589083  0.02456933    -0.11600
C1467       C  0.59338812  0.50759399  0.03540535    -0.01400
C1468       C  0.59394515  0.48791124  0.05300654    -0.10500
C1469       C  0.66189449  0.46934301  0.05197431     0.06000
H1470       H  0.65480687  0.50995486  0.02086959     0.07900
H1471       H  0.61560667  0.53049567  0.01040484     0.11400
H1472       H  0.57694592  0.48089065  0.06143695     0.11600
H1473       H  0.61605285  0.46100875  0.07259829     0.07900
C1474       C  0.68492713  0.48170026  0.05343990    -0.11200
C1475       C  0.70673983  0.46805141  0.05807320    -0.10500
C1476       C  0.70590453  0.44178831  0.06144192    -0.01400
C1477       C  0.68297214  0.42942607  0.05947569    -0.11600
C1478       C  0.66126703  0.44298342  0.05472757    -0.10000
H1479       H  0.68604775  0.50199944  0.05155770     0.07900
H1480       H  0.72410993  0.47806746  0.05968077     0.11600
H1481       H  0.68184083  0.40909164  0.06150829     0.11400
H1482       H  0.64400780  0.43275729  0.05299221     0.07900
C1483       C  0.61874850  0.52463562  0.92707629    -0.11200
C1484       C  0.63939844  0.51448215  0.93978097     0.06000
C1485       C  0.63509929  0.49634094  0.95853867    -0.09900
C1486       C  0.61084937  0.48959062  0.96524339    -0.11600
C1487       C  0.59027655  0.50136834  0.95380831    -0.01400
C1488       C  0.59444558  0.51834015  0.93422193    -0.10500
C1489       C  0.66515023  0.52390183  0.93463905     0.06000
H1490       H  0.65046287  0.48792994  0.96849779     0.07900
H1491       H  0.60830376  0.47658095  0.98072609     0.11400
H1492       H  0.57893521  0.52770089  0.92534423     0.11600
H1493       H  0.62133682  0.53869790  0.91254465     0.07900
C1494       C  0.67341697  0.52838479  0.90997081    -0.11200
C1495       C  0.69717865  0.53823805  0.90537230    -0.10500
C1496       C  0.71332103  0.54435412  0.92530210    -0.01400
C1497       C  0.70517934  0.53939403  0.94996009    -0.11600
C1498       C  0.68148960  0.52926623  0.95454921    -0.10000
H1499       H  0.66150159  0.52418824  0.89417618     0.07900
H1500       H  0.70285611  0.54122973  0.88603429     0.11600
H1501       H  0.71674310  0.54415602  0.96583590     0.11400
H1502       H  0.67565248  0.52640324  0.97377392     0.07900
C1503       C  0.51545094  0.63009512  0.04676038    -0.11200
C1504       C  0.53531121  0.63025199  0.06381540     0.06000
C1505       C  0.54458773  0.60686486  0.07231450    -0.09900
C1506       C  0.53538918  0.58405648  0.06269969    -0.11600
C1507       C  0.51639384  0.58410798  0.04470042    -0.01400
C1508       C  0.50604783  0.60739809  0.03752078    -0.10500
C1509       C  0.54733085  0.65463846  0.07105645     0.06000
H1510       H  0.55946446  0.60615985  0.08588479     0.07900
H1511       H  0.54378079  0.56646632  0.06862467     0.11400
H1512       H  0.49153070  0.60827749  0.02343030     0.11600
H1513       H  0.50799593  0.64749315  0.03942597     0.07900
C1514       C  0.53342995  0.67713135  0.07315745    -0.11200
C1515       C  0.54506974  0.70018721  0.07825424    -0.10500
C1516       C  0.57089818  0.70133889  0.08168835    -0.01400
C1517       C  0.58478250  0.67891171  0.07977028    -0.11600
C1518       C  0.57320188  0.65594230  0.07445789    -0.10000
H1519       H  0.51337089  0.67694925  0.07103028     0.07900
H1520       H  0.53383234  0.71706155  0.07999052     0.11600
H1521       H  0.60476353  0.67920168  0.08198871     0.11400
H1522       H  0.58472103  0.63925979  0.07237119     0.07900
C1523       C  0.49431954  0.62021999  0.92252366    -0.11200
C1524       C  0.50435139  0.64092380  0.93548972     0.06000
C1525       C  0.52071481  0.63639389  0.95548213    -0.09900
C1526       C  0.52531006  0.61177561  0.96368756    -0.11600
C1527       C  0.51335175  0.59121309  0.95222498    -0.01400
C1528       C  0.49864819  0.59562230  0.93093659    -0.10500
C1529       C  0.49484925  0.66675591  0.93051417     0.06000
H1530       H  0.52894131  0.65202631  0.96566717     0.07900
H1531       H  0.53660157  0.60903417  0.98021100     0.11400
H1532       H  0.48923519  0.58014574  0.92170029     0.11600
H1533       H  0.48158621  0.62309120  0.90716914     0.07900
C1534       C  0.49059340  0.67519224  0.90589675    -0.11200
C1535       C  0.47836080  0.69811829  0.90163512    -0.10500
C1536       C  0.46982399  0.71295048  0.92190121    -0.01400
C1537       C  0.47489510  0.70481055  0.94649128    -0.11600
C1538       C  0.48736103  0.68210735  0.95072041    -0.10000
H1539       H  0.49632203  0.66382920  0.88997423     0.07900
H1540       H  0.47526148  0.70403046  0.88243129     0.11600
H1541       H  0.46824921  0.71533701  0.96258613     0.11400
H1542       H  0.48990514  0.67591215  0.96990028     0.07900
C1543       C  0.34195653  0.55472492  0.05544333    -0.11200
C1544       C  0.34550359  0.53011092  0.04611789     0.06000
C1545       C  0.32438938  0.51461810  0.04361781    -0.09900
C1546       C  0.30048985  0.52379795  0.04988110    -0.11600
C1547       C  0.29717506  0.54869373  0.05873303    -0.01400
C1548       C  0.31834012  0.56393882  0.06111500    -0.10500
C1549       C  0.37119550  0.52170408  0.03856162     0.06000
H1550       H  0.32623452  0.49557555  0.03643926     0.07900
H1551       H  0.28469083  0.51138149  0.04794753     0.11400
H1552       H  0.31678364  0.58333784  0.06723644     0.11600
H1553       H  0.35749176  0.56715576  0.05849151     0.07900
C1554       C  0.38801901  0.53964844  0.02920104    -0.11200
C1555       C  0.41260882  0.53332299  0.02418832    -0.10500
C1556       C  0.42132005  0.50856859  0.02739427    -0.01400
C1557       C  0.40448490  0.48998978  0.03532486    -0.11600
C1558       C  0.37965088  0.49656708  0.04115893    -0.10000
H1559       H  0.38226653  0.55882494  0.02559487     0.07900
H1560       H  0.42477324  0.54798214  0.01718546     0.11600
H1561       H  0.41060280  0.47066545  0.03750367     0.11400
H1562       H  0.36730170  0.48212847  0.04816354     0.07900
C1563       C  0.40451094  0.45075743  0.94182622    -0.11200
C1564       C  0.38472167  0.46728001  0.93632268     0.06000
C1565       C  0.38988003  0.49327602  0.93483682    -0.09900
C1566       C  0.41372926  0.50246884  0.94010279    -0.11600
C1567       C  0.43317494  0.48587322  0.94646426    -0.01400
C1568       C  0.42838231  0.45987776  0.94649756    -0.10500
C1569       C  0.35888973  0.45730111  0.93296249     0.06000
H1570       H  0.37540403  0.50663183  0.93013806     0.07900
H1571       H  0.41671088  0.52265945  0.94019168     0.11400
H1572       H  0.44263853  0.44662318  0.95197933     0.11600
H1573       H  0.40146586  0.43069379  0.94381767     0.07900
C1574       C  0.35520172  0.43290653  0.92331733    -0.11200
C1575       C  0.33141689  0.42278026  0.92134318    -0.10500
C1576       C  0.31018287  0.43696190  0.92789030    -0.01400
C1577       C  0.31371145  0.46145504  0.93748103    -0.11600
C1578       C  0.33774699  0.47140311  0.94014003    -0.10000
H1579       H  0.37069372  0.42146256  0.91712756     0.07900
H1580       H  0.32984476  0.40353581  0.91465512     0.11600
H1581       H  0.29797012  0.47305446  0.94262681     0.11400
H1582       H  0.33968960  0.49012568  0.94814075     0.07900
C1583       C  0.06857037  0.47920210  0.38644553    -0.11200
C1584       C  0.06149558  0.49394414  0.36575882     0.06000
C1585       C  0.04742810  0.51587238  0.36991767    -0.09900
C1586       C  0.03988768  0.52252047  0.39425678    -0.11600
C1587       C  0.04576165  0.50703593  0.41486287    -0.01400
C1588       C  0.06054131  0.48551874  0.41073889    -0.10500
C1589       C  0.06700181  0.48518697  0.33984755     0.06000
H1590       H  0.04172054  0.52747118  0.35424172     0.07900
H1591       H  0.02820067  0.53898850  0.39671408     0.11400
H1592       H  0.06509825  0.47304145  0.42614607     0.11600
H1593       H  0.07922110  0.46207177  0.38362521     0.07900
C1594       C  0.09139906  0.47950675  0.33241865    -0.11200
C1595       C  0.09619045  0.46879744  0.30881649    -0.10500
C1596       C  0.07660024  0.46299801  0.29231286    -0.01400
C1597       C  0.05224131  0.46959411  0.29952981    -0.11600
C1598       C  0.04752680  0.48070152  0.32296960    -0.10000
H1599       H  0.10673486  0.48302646  0.34507589     0.07900
H1600       H  0.11521514  0.46458205  0.30369940     0.11600
H1601       H  0.03661600  0.46515858  0.28757045     0.11400
H1602       H  0.02853430  0.48469513  0.32842579     0.07900
C1603       C  0.92812002  0.51689991  0.32816210    -0.11200
C1604       C  0.95269087  0.51303474  0.33574969     0.06000
C1605       C  0.97210003  0.51813978  0.31876449    -0.09900
C1606       C  0.96697052  0.52820453  0.29494440    -0.11600
C1607       C  0.94231380  0.53310582  0.28773977    -0.01400
C1608       C  0.92297583  0.52653633  0.30436695    -0.10500
C1609       C  0.95789053  0.50534624  0.36193007     0.06000
H1610       H  0.99124785  0.51539875  0.32436154     0.07900
H1611       H  0.98224559  0.53315969  0.28268051     0.11400
H1612       H  0.90378671  0.52945024  0.29920481     0.11600
H1613       H  0.91288642  0.51282921  0.34085978     0.07900
C1614       C  0.94936997  0.52031545  0.38199885    -0.11200
C1615       C  0.95534359  0.51411274  0.40679147    -0.10500
C1616       C  0.96951394  0.49248160  0.41200697    -0.01400
C1617       C  0.97712984  0.47693061  0.39191557    -0.11600
C1618       C  0.97161512  0.48345805  0.36706587    -0.10000
H1619       H  0.93882667  0.53733508  0.37840583     0.07900
H1620       H  0.94953312  0.52661883  0.42176700     0.11600
H1621       H  0.98846243  0.46035628  0.39528607     0.11400
H1622       H  0.97826259  0.47165050  0.35188391     0.07900
C1623       C  0.05124182  0.55894283  0.67125871    -0.11200
C1624       C  0.06966186  0.54691601  0.65661802     0.06000
C1625       C  0.09271844  0.54155241  0.66771383    -0.09900
C1626       C  0.09747320  0.54884202  0.69257303    -0.11600
C1627       C  0.07911140  0.56120419  0.70695389    -0.01400
C1628       C  0.05589525  0.56590412  0.69612243    -0.10500
C1629       C  0.06440054  0.54019428  0.62995364     0.06000
H1630       H  0.10728536  0.53229891  0.65695867     0.07900
H1631       H  0.11556660  0.54498315  0.70058567     0.11400
H1632       H  0.04148304  0.57560993  0.70674083     0.11600
H1633       H  0.03315070  0.56291864  0.66348472     0.07900
C1634       C  0.07123642  0.51659741  0.61983247    -0.11200
C1635       C  0.06271248  0.50912000  0.59602392    -0.10500
C1636       C  0.04717871  0.52515360  0.58208564    -0.01400
C1637       C  0.04206993  0.54940857  0.59139629    -0.11600
C1638       C  0.05067254  0.55689696  0.61493161    -0.10000
H1639       H  0.08187482  0.50329641  0.63093983     0.07900
H1640       H  0.06672695  0.49027403  0.58938155     0.11600
H1641       H  0.03032416  0.56223886  0.58092865     0.11400
H1642       H  0.04573415  0.57543407  0.62180638     0.07900
C1643       C  0.93831928  0.46198354  0.67473328    -0.11200
C1644       C  0.93500535  0.44678264  0.65324193     0.06000
C1645       C  0.92764926  0.42160717  0.65667557    -0.09900
C1646       C  0.92417293  0.41177970  0.68070365    -0.11600
C1647       C  0.92719804  0.42690447  0.70220721    -0.01400
C1648       C  0.93443563  0.45215943  0.69895828    -0.10500
C1649       C  0.94075766  0.45631041  0.62742115     0.06000
H1650       H  0.92454478  0.40936285  0.64078144     0.07900
H1651       H  0.91909718  0.39207821  0.68237601     0.11400
H1652       H  0.93678894  0.46436347  0.71507034     0.11600
H1653       H  0.94436725  0.48133693  0.67290077     0.07900
C1654       C  0.93646383  0.48161546  0.62050759    -0.11200
C1655       C  0.94445420  0.49070258  0.59701818    -0.10500
C1656       C  0.95690832  0.47462055  0.58014159    -0.01400
C1657       C  0.95981775  0.44913010  0.58642450    -0.11600
C1658       C  0.95191502  0.44009275  0.60968133    -0.10000
H1659       H  0.92759314  0.49457941  0.63352518     0.07900
H1660       H  0.94245831  0.51055992  0.59279298     0.11600
H1661       H  0.96969765  0.43644871  0.57386034     0.11400
H1662       H  0.95598237  0.42067014  0.61423328     0.07900
C1663       C  0.04637912  0.37497185  0.49468276    -0.11200
C1664       C  0.06398698  0.37187961  0.51387787     0.06000
C1665       C  0.07571901  0.39357701  0.52342981    -0.09900
C1666       C  0.06905248  0.41773112  0.51504298    -0.11600
C1667       C  0.05046519  0.42089337  0.49683434    -0.01400
C1668       C  0.03972197  0.39912183  0.48626698    -0.10500
C1669       C  0.06897225  0.34642926  0.52501377     0.06000
H1670       H  0.08969294  0.39191030  0.53793925     0.07900
H1671       H  0.07764125  0.43399443  0.52369554     0.11400
H1672       H  0.02511331  0.40076534  0.47246219     0.11600
H1673       H  0.03676464  0.35875375  0.48702347     0.07900
C1674       C  0.07069603  0.32458827  0.50995718    -0.11200
C1675       C  0.07519309  0.30081054  0.52078181    -0.10500
C1676       C  0.07802757  0.29829895  0.54693491    -0.01400
C1677       C  0.07580572  0.32009890  0.56192892    -0.11600
C1678       C  0.07141263  0.34374819  0.55116386    -0.10000
H1679       H  0.06900707  0.32594370  0.48975260     0.07900
H1680       H  0.07704165  0.28451782  0.50866378     0.11600
H1681       H  0.07737684  0.31887263  0.58217932     0.11400
H1682       H  0.06957054  0.35995398  0.56342516     0.07900
C1683       C  0.91894510  0.34102111  0.46366782    -0.11200
C1684       C  0.94375141  0.34773748  0.46825524     0.06000
C1685       C  0.96263327  0.33060027  0.46139799    -0.09900
C1686       C  0.95687250  0.30740147  0.45023618    -0.11600
C1687       C  0.93206559  0.30068273  0.44560297    -0.01400
C1688       C  0.91318847  0.31778377  0.45259895    -0.10500
C1689       C  0.95000105  0.37250862  0.48002497     0.06000
H1690       H  0.98195437  0.33533401  0.46420069     0.07900
H1691       H  0.97192932  0.29498754  0.44467538     0.11400
H1692       H  0.89381208  0.31312273  0.44969964     0.11600
H1693       H  0.90395644  0.35357129  0.46897339     0.07900
C1694       C  0.93733336  0.39472642  0.47325347    -0.11200
C1695       C  0.94468599  0.41820376  0.48282412    -0.10500
C1696       C  0.96473819  0.42000327  0.49959823    -0.01400
C1697       C  0.97642020  0.39761004  0.50745450    -0.11600
C1698       C  0.96927449  0.37423628  0.49766919    -0.10000
H1699       H  0.92245434  0.39412916  0.45958809     0.07900
H1700       H  0.93545934  0.43505646  0.47613911     0.11600
H1701       H  0.99206909  0.39820519  0.52008630     0.11400
H1702       H  0.97917364  0.35751294  0.50363495     0.07900
C1703       C  0.95985187  0.67114925  0.52365935    -0.11200
C1704       C  0.93980950  0.65504072  0.51814038     0.06000
C1705       C  0.91566646  0.66337006  0.52404971    -0.09900
C1706       C  0.91176009  0.68665385  0.53599162    -0.11600
C1707       C  0.93186560  0.70226541  0.54257898    -0.01400
C1708       C  0.95593932  0.69443530  0.53571249    -0.10500
C1709       C  0.94429046  0.62912810  0.50772863     0.06000
H1710       H  0.89977870  0.65171927  0.51968685     0.07900
H1711       H  0.89286920  0.69229140  0.54048242     0.11400
H1712       H  0.97186268  0.70577419  0.54064360     0.11600
H1713       H  0.97872627  0.66527893  0.51964139     0.07900
C1714       C  0.96280869  0.62486532  0.48949175    -0.11200
C1715       C  0.96916842  0.60028476  0.48209783    -0.10500
C1716       C  0.95743688  0.57918572  0.49293475    -0.01400
C1717       C  0.93789497  0.58348090  0.51005812    -0.11600
C1718       C  0.93132912  0.60813882  0.51725803    -0.10000
H1719       H  0.97291448  0.64050980  0.48148080     0.07900
H1720       H  0.98441155  0.59782406  0.46894355     0.11600
H1721       H  0.92860164  0.56776878  0.51896634     0.11400
H1722       H  0.91704867  0.61066370  0.53143886     0.07900
C1723       C  0.08485673  0.66261304  0.46822120    -0.11200
C1724       C  0.06046670  0.65498423  0.47370120     0.06000
C1725       C  0.04074121  0.67114693  0.46716564    -0.09900
C1726       C  0.04528994  0.69407687  0.45495165    -0.11600
C1727       C  0.06966562  0.70148523  0.44898259    -0.01400
C1728       C  0.08940615  0.68558369  0.45610333    -0.10500
C1729       C  0.05541723  0.62983935  0.48516487     0.29000
H1730       H  0.02173403  0.66569292  0.47075778     0.07900
H1731       H  0.02959653  0.70563614  0.44946220     0.11400
H1732       H  0.10842904  0.69088055  0.45224873     0.11600
H1733       H  0.10045866  0.65079317  0.47330735     0.07900
C1734       C  0.06822387  0.60817466  0.47682642    -0.11200
C1735       C  0.06137606  0.58415389  0.48534352    -0.10500
C1736       C  0.04171416  0.58124880  0.50255459    -0.01400
C1737       C  0.03007758  0.60309701  0.51213350    -0.11600
C1738       C  0.03672596  0.62703376  0.50342951    -0.10000
H1739       H  0.08258349  0.60965123  0.46267729     0.07900
H1740       H  0.07057691  0.56777175  0.47734095     0.11600
H1741       H  0.01472481  0.60167942  0.52525956     0.11400
H1742       H  0.02674160  0.64332804  0.51050667     0.07900
C1743       C  0.51257376  0.03927753  0.62688085    -0.11200
C1744       C  0.49484216  0.05795400  0.63270458     0.06000
C1745       C  0.48249815  0.06993446  0.61268709    -0.09900
C1746       C  0.48697895  0.06280203  0.58766845    -0.11600
C1747       C  0.50402579  0.04350133  0.58190555    -0.01400
C1748       C  0.51716243  0.03224583  0.60183353    -0.10500
C1749       C  0.48819718  0.06420800  0.65940711     0.06000
H1750       H  0.46844505  0.08411932  0.61637684     0.07900
H1751       H  0.47626497  0.07159261  0.57297933     0.11400
H1752       H  0.53027459  0.01707376  0.59819749     0.11600
H1753       H  0.52258318  0.02982227  0.64167749     0.07900
C1754       C  0.48572072  0.04523799  0.67780136    -0.11200
C1755       C  0.47618745  0.05089773  0.70184884    -0.10500
C1756       C  0.46889949  0.07565060  0.70802956    -0.01400
C1757       C  0.47308510  0.09478970  0.69021312    -0.11600
C1758       C  0.48251375  0.08917236  0.66630403    -0.10000
H1759       H  0.48986310  0.02575469  0.67318723     0.07900
H1760       H  0.47315764  0.03570007  0.71505940     0.11600
H1761       H  0.46821730  0.11418819  0.69450535     0.11400
H1762       H  0.48479282  0.10435957  0.65296559     0.07900
C1763       C  0.55140572  0.93015380  0.65433547    -0.11200
C1764       C  0.52590336  0.93592438  0.65423566     0.06000
C1765       C  0.51353294  0.93795122  0.67756511    -0.09900
C1766       C  0.52628585  0.93394265  0.70025445    -0.11600
C1767       C  0.55178624  0.92785706  0.70023474    -0.01400
C1768       C  0.56410070  0.92629328  0.67688808    -0.10500
C1769       C  0.51303517  0.94115797  0.62982785     0.06000
H1770       H  0.49386636  0.94234777  0.67830122     0.07900
H1771       H  0.51605686  0.93516751  0.71779063     0.11400
H1772       H  0.58383890  0.92245903  0.67594031     0.11600
H1773       H  0.56179660  0.92924812  0.63698784     0.07900
C1774       C  0.51969122  0.92809065  0.60767240    -0.11200
C1775       C  0.51086762  0.93586170  0.58410591    -0.10500
C1776       C  0.49483533  0.95671602  0.58214917    -0.01400
C1777       C  0.48655655  0.96838712  0.60451278    -0.11600
C1778       C  0.49560565  0.96084888  0.62797050    -0.10000
H1779       H  0.53258520  0.91237443  0.60840211     0.07900
H1780       H  0.51757709  0.92641470  0.56742437     0.11600
H1781       H  0.47433573  0.98468503  0.60387724     0.11400
H1782       H  0.49013279  0.97150178  0.64439618     0.07900
C1783       C  0.31534618  0.05977033  0.47333742    -0.11200
C1784       C  0.33658334  0.06312997  0.45805342     0.06000
C1785       C  0.33297103  0.07081431  0.43306650    -0.09900
C1786       C  0.30923282  0.07433096  0.42346445    -0.11600
C1787       C  0.28797429  0.07166972  0.43866463    -0.01400
C1788       C  0.29128092  0.06408090  0.46379620    -0.10500
C1789       C  0.36241587  0.05746190  0.46702694     0.06000
H1790       H  0.34850106  0.07428443  0.42070824     0.07900
H1791       H  0.30764836  0.07945501  0.40381676     0.11400
H1792       H  0.27542337  0.06188768  0.47606617     0.11600
H1793       H  0.31724554  0.05349089  0.49267664     0.07900
C1794       C  0.36965278  0.06084688  0.49229418    -0.11200
C1795       C  0.39360174  0.05374730  0.50028014    -0.10500
C1796       C  0.41067853  0.04325834  0.48314714    -0.01400
C1797       C  0.40388826  0.04110985  0.45786418    -0.11600
C1798       C  0.38017184  0.04786344  0.44998423    -0.10000
H1799       H  0.35668948  0.06840936  0.50595862     0.07900
H1800       H  0.39820695  0.05496460  0.52009662     0.11600
H1801       H  0.41648951  0.03260526  0.44442695     0.11400
H1802       H  0.37550291  0.04417182  0.43057104     0.07900
C1803       C  0.37832149  0.92575072  0.51372187    -0.11200
C1804       C  0.36462669  0.93461947  0.53445795     0.06000
C1805       C  0.37629253  0.94998462  0.55229313    -0.09900
C1806       C  0.40047504  0.95823680  0.54838206    -0.11600
C1807       C  0.41348027  0.95146887  0.52646364    -0.01400
C1808       C  0.40267974  0.93420772  0.50967049    -0.10500
C1809       C  0.33780035  0.92959696  0.53716689     0.06000
H1810       H  0.36627156  0.95649872  0.56873045     0.07900
H1811       H  0.40844482  0.97131018  0.56180399     0.11400
H1812       H  0.41225403  0.92882080  0.49258386     0.11600
H1813       H  0.36966177  0.91364287  0.49986828     0.07900
C1814       C  0.32146204  0.94979152  0.54185050    -0.11200
C1815       C  0.29682158  0.94531341  0.54855608    -0.10500
C1816       C  0.28815597  0.92053527  0.55090422    -0.01400
C1817       C  0.30398470  0.90036540  0.54436498    -0.11600
C1818       C  0.32865015  0.90488559  0.53738427    -0.10000
H1819       H  0.32811591  0.96905281  0.54141538     0.07900
H1820       H  0.28507199  0.96114259  0.55365169     0.11600
H1821       H  0.29759979  0.88109046  0.54590658     0.11400
H1822       H  0.34093152  0.88907082  0.53370394     0.07900
C1823       C  0.48539100  0.03850270  0.37794575    -0.11200
C1824       C  0.50287066  0.05807856  0.37627610     0.06000
C1825       C  0.50944261  0.07094305  0.39840554    -0.09900
C1826       C  0.50068796  0.06289783  0.42186816    -0.11600
C1827       C  0.48508160  0.04175884  0.42376299    -0.01400
C1828       C  0.47657399  0.03047037  0.40141966    -0.10500
C1829       C  0.51641519  0.06298267  0.35224793     0.06000
H1830       H  0.52248691  0.08649839  0.39770357     0.07900
H1831       H  0.50753655  0.07209155  0.43856831     0.11400
H1832       H  0.46465191  0.01401670  0.40209752     0.11600
H1833       H  0.47998074  0.02815005  0.36131967     0.07900
C1834       C  0.50423278  0.06308884  0.32890211    -0.11200
C1835       C  0.51765888  0.06650566  0.30644880    -0.10500
C1836       C  0.54359465  0.06979441  0.30691807    -0.01400
C1837       C  0.55568160  0.06941359  0.33026561    -0.11600
C1838       C  0.54233084  0.06612295  0.35256373    -0.10000
H1839       H  0.48422177  0.06070976  0.32800996     0.07900
H1840       H  0.50780314  0.06696423  0.28885865     0.11600
H1841       H  0.57570484  0.07138331  0.33130991     0.11400
H1842       H  0.55241293  0.06542926  0.37007118     0.07900
C1843       C  0.49936030  0.95702736  0.37616077    -0.11200
C1844       C  0.48151430  0.93798840  0.37296371     0.06000
C1845       C  0.47244140  0.92561201  0.39451210    -0.09900
C1846       C  0.47985023  0.93320426  0.41864507    -0.11600
C1847       C  0.49663391  0.95323742  0.42184510    -0.01400
C1848       C  0.50688671  0.96448442  0.40023001    -0.10500
C1849       C  0.47135923  0.93217491  0.34744465     0.06000
H1850       H  0.45862337  0.91097595  0.39278916     0.07900
H1851       H  0.47137846  0.92424725  0.43483879     0.11400
H1852       H  0.51975283  0.98000500  0.40189022     0.11600
H1853       H  0.50706328  0.96666739  0.36001266     0.07900
C1854       C  0.46568007  0.95174888  0.33056924    -0.11200
C1855       C  0.45523222  0.94659382  0.30700775    -0.10500
C1856       C  0.45025782  0.92164170  0.29947875    -0.01400
C1857       C  0.45630624  0.90203143  0.31627936    -0.11600
C1858       C  0.46655695  0.90722701  0.33993924    -0.10000
H1859       H  0.46869396  0.97126599  0.33588252     0.07900
H1860       H  0.45042938  0.96225464  0.29499159     0.11600
H1861       H  0.45320597  0.88252755  0.31111449     0.11400
H1862       H  0.47092735  0.89165538  0.35233221     0.07900
C1863       C  0.65797160  0.08150731  0.52339067    -0.11200
C1864       C  0.65041016  0.05792316  0.51436550     0.06000
C1865       C  0.66665338  0.03725437  0.51650265    -0.09900
C1866       C  0.68947832  0.03985524  0.52878042    -0.11600
C1867       C  0.69666963  0.06327307  0.53886837    -0.01400
C1868       C  0.68094379  0.08423525  0.53517564    -0.10500
C1869       C  0.62473682  0.05426875  0.50514440     0.06000
H1870       H  0.66110396  0.01882307  0.50987615     0.07900
H1871       H  0.70091030  0.02321997  0.53136468     0.11400
H1872       H  0.68613047  0.10277014  0.54187050     0.11600
H1873       H  0.64584929  0.09775445  0.52172870     0.07900
C1874       C  0.60454366  0.06150034  0.52034221    -0.11200
C1875       C  0.58035322  0.05468353  0.51383412    -0.10500
C1876       C  0.57583407  0.04089934  0.49176971    -0.01400
C1877       C  0.59586729  0.03527492  0.47563984    -0.11600
C1878       C  0.62016445  0.04165643  0.48242501    -0.10000
H1879       H  0.60762520  0.07106625  0.53801133     0.07900
H1880       H  0.56532680  0.05908540  0.52673705     0.11600
H1881       H  0.59299914  0.02436569  0.45870567     0.11400
H1882       H  0.63544596  0.03597625  0.47040372     0.07900
C1883       C  0.65583786  0.92643698  0.45055907    -0.11200
C1884       C  0.65290454  0.93928649  0.47352489     0.06000
C1885       C  0.67445933  0.94523675  0.48724573    -0.09900
C1886       C  0.69814851  0.93831246  0.47831149    -0.11600
C1887       C  0.70095191  0.92540800  0.45530413    -0.01400
C1888       C  0.67937265  0.91996491  0.44146462    -0.10500
C1889       C  0.62749452  0.94677740  0.48256521     0.06000
H1890       H  0.67309696  0.95549492  0.50483312     0.07900
H1891       H  0.71419258  0.94275232  0.48962471     0.11400
H1892       H  0.68055179  0.91069666  0.42338335     0.11600
H1893       H  0.63984000  0.92107031  0.43948887     0.07900
C1894       C  0.60891547  0.95327429  0.46517967    -0.11200
C1895       C  0.58517424  0.96030210  0.47322779    -0.10500
C1896       C  0.57923801  0.96159427  0.49892589    -0.01400
C1897       C  0.59763574  0.95515454  0.51646063    -0.11600
C1898       C  0.62142665  0.94762176  0.50836395    -0.10000
H1899       H  0.61283031  0.95362912  0.44525454     0.07900
H1900       H  0.57164338  0.96575610  0.45912456     0.11600
H1901       H  0.59371655  0.95620546  0.53639989     0.11400
H1902       H  0.63504756  0.94245908  0.52235956     0.07900
loop_ 
_geom_bond_atom_site_label_1 
_geom_bond_atom_site_label_2 
_geom_bond_distance 
_geom_bond_site_symmetry_2 
_ccdc_geom_bond_type 
O1            C9   1.295       .  A
O1          Co21   2.101   1_545  S
O2           C10   1.269       .  A
O2          Co22   1.993   1_545  S
O3           C11   1.270       .  A
O3          Co23   1.972       .  S
O4           C12   1.267       .  A
O4          Co24   1.984       .  S
O5           C11   1.280       .  A
O5          Co22   2.038   1_545  S
O6           C12   1.266       .  A
O6          Co21   2.008   1_545  S
O7           C10   1.272       .  A
O7          Co24   1.995       .  S
O8            C9   1.268       .  A
O8          Co23   1.902       .  S
C9         C1876   1.479       .  S
C10        C1796   1.477       .  S
C11        C1827   1.490       .  S
C12        C1747   1.493       .  S
O13          C26   1.275       .  A
O13         Co21   1.985       .  S
O14          C27   1.263       .  A
O14         Co22   1.979       .  S
O15          C28   1.294       .  A
O15         Co23   2.092   1_565  S
O16          C29   1.271       .  A
O16         Co24   1.994   1_565  S
O17          C29   1.268       .  A
O17         Co22   1.979       .  S
O18          C28   1.270       .  A
O18         Co21   1.914       .  S
O19          C26   1.279       .  A
O19         Co24   2.024   1_565  S
O20          C27   1.266       .  A
O20         Co23   2.015   1_565  S
Co21         O25   2.024       .  S
Co22         O25   2.045       .  S
Co23         O25   2.017   1_545  S
Co24         O25   2.047   1_545  S
C26        C1776   1.493       .  S
C27        C1847   1.492       .  S
C28        C1896   1.486       .  S
C29        C1807   1.475       .  S
O30          C38   1.265       .  A
O30         Co50   1.982       .  S
O31          C39   1.269       .  A
O31         Co51   1.969       .  S
O32          C40   1.295       .  A
O32         Co52   2.100   1_655  S
O33          C41   1.268       .  A
O33         Co53   1.990   1_655  S
O34          C40   1.265       .  A
O34         Co51   1.901       .  S
O35          C41   1.270       .  A
O35         Co50   1.992       .  S
O36          C39   1.282       .  A
O36         Co53   2.041   1_655  S
O37          C38   1.265       .  A
O37         Co52   2.009   1_655  S
C38        C1716   1.494       .  S
C39        C1696   1.488       .  S
C40        C1616   1.481       .  S
C41        C1656   1.476       .  S
O42          C55   1.271       .  A
O42         Co50   1.999   1_455  S
O43          C56   1.296       .  A
O43         Co51   2.102   1_455  S
O44          C57   1.271       .  A
O44         Co52   1.974       .  S
O45          C58   1.261       .  A
O45         Co53   1.976       .  S
O46          C58   1.263       .  A
O46         Co51   2.014   1_455  S
O47          C57   1.279       .  A
O47         Co50   2.028   1_455  S
O48          C55   1.270       .  A
O48         Co53   1.989       .  S
O49          C56   1.267       .  A
O49         Co52   1.901       .  S
Co50         O54   2.053   1_655  S
Co51         O54   2.028   1_655  S
Co52         O54   2.024       .  S
Co53         O54   2.047       .  S
C55        C1636   1.480       .  S
C56        C1587   1.484       .  S
C57        C1736   1.488       .  S
C58        C1667   1.494       .  S
O59          C67   1.268       .  A
O59         Co79   1.989       .  S
O60          C68   1.266       .  A
O60         Co80   2.011       .  S
O61          C69   1.275       .  A
O61         Co81   1.989       .  S
O62          C70   1.297       .  A
O62         Co82   2.059   1_556  S
O63          C69   1.280       .  A
O63         Co80   2.024       .  S
O64          C70   1.277       .  A
O64         Co79   1.912       .  S
O65          C68   1.241       .  A
O65         Co82   1.925   1_556  S
O66          C67   1.268       .  A
O66         Co81   2.004       .  S
C67        C1567   1.487       .  S
C68        C1487   1.475       .  S
C69        C1527   1.484       .  S
C70        C1456   1.472       .  S
O71          C84   1.283       .  A
O71         Co79   2.050   1_554  S
O72          C85   1.259       .  A
O72         Co80   1.991   1_554  S
O73          C86   1.261       .  A
O73         Co81   1.961   1_554  S
O74          C87   1.292       .  A
O74         Co82   2.041       .  S
O75          C87   1.281       .  A
O75         Co80   1.901   1_554  S
O76          C86   1.275       .  A
O76         Co79   2.023   1_554  S
O77          C84   1.241       .  A
O77         Co82   1.947       .  S
O78          C85   1.260       .  A
O78         Co81   1.990   1_554  S
Co79         O83   1.995       .  S
Co80         O83   1.942       .  S
Co81         O83   2.028       .  S
Co82         O83   2.086   1_554  S
C84        C1436   1.489       .  S
C85        C1507   1.486       .  S
C86        C1556   1.482       .  S
C87        C1467   1.465       .  S
C88        C1767   1.504       .  S
C88          C89   1.415       .  A
C88          C93   1.411       .  A
C89          C90   1.415       .  A
C89          H94   1.082       .  S
C90        C1387   1.503       .  S
C90          C91   1.411       .  A
C91          C92   1.405       .  A
C91          H95   1.081       .  S
C92        C1407   1.495       .  S
C92          C93   1.405       .  A
C93          H96   1.081       .  S
C97        C1347   1.497       .  S
C97          C98   1.407       .  A
C97         C102   1.411       .  A
C98          C99   1.403       .  A
C98         H103   1.083       .  S
C99        C1367   1.490       .  S
C99         C100   1.407       .  A
C100        C101   1.410       .  A
C100        H104   1.084       .  S
C101       C1416   1.497       .  S
C101        C102   1.413       .  A
C102        H105   1.082       .  S
C106       C1707   1.501       .  S
C106        C107   1.416       .  A
C106        C111   1.407       .  A
C107        C108   1.419       .  A
C107        H112   1.082       .  S
C108       C1327   1.511       .  S
C108        C109   1.413       .  A
C109        C110   1.407       .  A
C109        H113   1.082       .  S
C110       C1376   1.494       .  S
C110        C111   1.403       .  A
C111        H114   1.084       .  S
C115       C1307   1.511       .  S
C115        C116   1.413       .  A
C115        C120   1.420       .  A
C116        C117   1.402       .  A
C116        H121   1.082       .  S
C117       C1356   1.487       .  S
C117        C118   1.401       .  A
C118        C119   1.408       .  A
C118        H122   1.083       .  S
C119       C1496   1.506       .  S
C119        C120   1.419       .  A
C120        H123   1.081       .  S
C124       C1276   1.487       .  S
C124        C125   1.406       .  A
C124        C129   1.408       .  A
C125        C126   1.404       .  A
C125        H130   1.082       .  S
C126       C1287   1.482       .  S
C126        C127   1.402       .  A
C127        C128   1.403       .  A
C127        H131   1.083       .  S
C128       C1256   1.485       .  S
C128        C129   1.407       .  A
C129        H132   1.083       .  S
C133       C1576   1.502       .  S
C133        C134   1.417       .  A
C133        C138   1.408       .  A
C134        C135   1.415       .  A
C134        H139   1.080       .  S
C135       C1236   1.493       .  S
C135        C136   1.406       .  A
C136        C137   1.398       .  A
C136        H140   1.083       .  S
C137       C1296   1.486       .  S
C137        C138   1.400       .  A
C138        H141   1.081       .  S
C142       C1216   1.505       .  S
C142        C143   1.420       .  A
C142        C147   1.409       .  A
C143        C144   1.418       .  A
C143        H148   1.083       .  S
C144       C1756   1.499       .  S
C144        C145   1.408       .  A
C145        C146   1.400       .  A
C145        H149   1.084       .  S
C146       C1267   1.488       .  S
C146        C147   1.399       .  A
C147        H150   1.082       .  S
C151       C1196   1.492       .  S
C151        C152   1.415       .  A
C151        C156   1.405       .  A
C152        C153   1.417       .  A
C152        H157   1.080       .  S
C153       C1676   1.499       .  S
C153        C154   1.408       .  A
C154        C155   1.403       .  A
C154        H158   1.082       .  S
C155       C1247   1.487       .  S
C155        C156   1.403       .  A
C156        H159   1.083       .  S
O160        C168   1.259       .  A
O160       Co180   1.981       .  S
O161        C169   1.277   1_565  A
O161       Co181   2.036       .  S
O162        C170   1.263   1_556  A
O162       Co182   1.969       .  S
O163        C171   1.296   1_554  A
O163       Co183   2.053       .  S
O164        C170   1.270       .  A
O164       Co181   1.993       .  S
O165        C171   1.285       .  A
O165       Co180   1.908       .  S
O166        C169   1.241       .  A
O166       Co183   1.966       .  S
O167        C168   1.258   1_565  A
O167       Co182   1.991       .  S
C168       C1207   1.489       .  S
C169       C1127   1.491       .  S
C170       C1087   1.469       .  S
C171       C1156   1.477   1_556  S
O172        C185   1.267   1_556  A
O172       Co180   2.001       .  S
O173        C186   1.270       .  A
O173       Co181   1.994       .  S
O174        C187   1.276       .  A
O174       Co182   1.990       .  S
O175        C188   1.300   1_545  A
O175       Co183   2.077       .  S
O176        C188   1.273       .  A
O176       Co181   1.903       .  S
O177        C187   1.286   1_545  A
O177       Co180   2.047       .  S
O178        C185   1.242       .  A
O178       Co183   1.920       .  S
O179        C186   1.270   1_556  A
O179       Co182   2.009       .  S
Co180       O184   1.945   1_546  S
Co181       O184   1.977       .  S
Co182       O184   2.032   1_556  S
Co183       O184   2.101   1_545  S
C185       C1167   1.472       .  S
C186       C1076   1.492       .  S
C187       C1396   1.493       .  S
C188       C1107   1.474       .  S
C189       C1047   1.482       .  S
C189        C190   1.405       .  A
C189        C194   1.403       .  A
C190        C191   1.403       .  A
C190        H195   1.083       .  S
C191       C1007   1.483       .  S
C191        C192   1.404       .  A
C192        C193   1.402       .  A
C192        H196   1.083       .  S
C193       C1027   1.481       .  S
C193        C194   1.404       .  A
C194        H197   1.083       .  S
C198       C1536   1.492       .  S
C198        C199   1.407       .  A
C198        C203   1.408       .  A
C199        C200   1.406       .  A
C199        H204   1.083       .  S
C200       C1056   1.490       .  S
C200        C201   1.405       .  A
C201        C202   1.405       .  A
C201        H205   1.082       .  S
C202       C1096   1.490       .  S
C202        C203   1.405       .  A
C203        H206   1.082       .  S
C207        C987   1.497       .  S
C207        C208   1.413       .  A
C207        C212   1.412       .  A
C208        C209   1.402       .  A
C208        H213   1.082       .  S
C209       C1036   1.480       .  S
C209        C210   1.398       .  A
C210        C211   1.398       .  A
C210        H214   1.082       .  S
C211       C1816   1.479       .  S
C211        C212   1.404       .  A
C212        H215   1.083       .  S
C216        C967   1.491       .  S
C216        C217   1.405       .  A
C216        C221   1.411       .  A
C217        C218   1.399       .  A
C217        H222   1.084       .  S
C218       C1016   1.479       .  S
C218        C219   1.402       .  A
C219        C220   1.402       .  A
C219        H223   1.083       .  S
C220       C1627   1.484       .  S
C220        C221   1.409       .  A
C221        H224   1.081       .  S
C225        C927   1.492       .  S
C225        C226   1.408       .  A
C225        C230   1.408       .  A
C226        C227   1.406       .  A
C226        H231   1.084       .  S
C227        C947   1.492       .  S
C227        C228   1.406       .  A
C228        C229   1.406       .  A
C228        H232   1.083       .  S
C229        C907   1.493       .  S
C229        C230   1.409       .  A
C230        H233   1.083       .  S
C234       C1687   1.496       .  S
C234        C235   1.412       .  A
C234        C239   1.407       .  A
C235        C236   1.411       .  A
C235        H240   1.082       .  S
C236        C887   1.496       .  S
C236        C237   1.409       .  A
C237        C238   1.405       .  A
C237        H241   1.083       .  S
C238        C956   1.488       .  S
C238        C239   1.403       .  A
C239        H242   1.082       .  S
C243        C876   1.506       .  S
C243        C244   1.416       .  A
C243        C248   1.413       .  A
C244        C245   1.406       .  A
C244        H249   1.078       .  S
C245        C936   1.487       .  S
C245        C246   1.399       .  A
C246        C247   1.402       .  A
C246        H250   1.084       .  S
C247       C1476   1.485       .  S
C247        C248   1.407       .  A
C248        H251   1.080       .  S
C252       C1836   1.494       .  S
C252        C253   1.412       .  A
C252        C257   1.406       .  A
C253        C254   1.414       .  A
C253        H258   1.082       .  S
C254       C1116   1.500       .  S
C254        C255   1.411       .  A
C255        C256   1.405       .  A
C255        H259   1.082       .  S
C256        C916   1.488       .  S
C256        C257   1.401       .  A
C257        H260   1.083       .  S
O261        C269   1.292   1_556  A
O261       Co281   2.085       .  S
O262        C270   1.303       .  A
O262       Co282   2.074   1_556  S
O263        C271   1.301       .  A
O263       Co283   2.075   1_455  S
O264        C272   1.259   1_455  A
O264       Co284   1.996       .  S
O265        C271   1.281       .  A
O265       Co282   1.905       .  S
O266        C272   1.258       .  A
O266       Co281   1.990       .  S
O267        C270   1.286       .  A
O267       Co284   1.905       .  S
O268        C269   1.270       .  A
O268       Co283   1.921       .  S
C269       C1316   1.488   1_554  S
C270        C856   1.484       .  S
C271        C816   1.486       .  S
C272        C976   1.480   1_655  S
O273        C286   1.282   1_655  A
O273       Co281   1.985       .  S
O274        C287   1.261       .  A
O274       Co282   1.985       .  S
O275        C288   1.297   1_554  A
O275       Co283   2.074       .  S
O276        C289   1.265       .  A
O276       Co284   1.988       .  S
O277        C289   1.266   1_554  A
O277       Co282   1.997       .  S
O278        C288   1.276       .  A
O278       Co281   1.916       .  S
O279        C286   1.288       .  A
O279       Co284   2.023       .  S
O280        C287   1.261   1_655  A
O280       Co283   1.982       .  S
Co281       O285   2.021   1_655  S
Co282       O285   1.985   1_554  S
Co283       O285   2.037   1_654  S
Co284       O285   1.889       .  S
C286        C787   1.486       .  S
C287        C827   1.475       .  S
C288        C867   1.484       .  S
C289       C1227   1.486       .  S
C290        C756   1.500       .  S
C290        C291   1.419       .  A
C290        C295   1.412       .  A
C291        C292   1.416       .  A
C291        H296   1.084       .  S
C292       C1787   1.501       .  S
C292        C293   1.406       .  A
C293        C294   1.398       .  A
C293        H297   1.083       .  S
C294        C776   1.493       .  S
C294        C295   1.404       .  A
C295        H298   1.082       .  S
C299        C767   1.489       .  S
C299        C300   1.408       .  A
C299        C304   1.406       .  A
C300        C301   1.408       .  A
C300        H305   1.082       .  S
C301        C707   1.492       .  S
C301        C302   1.408       .  A
C302        C303   1.407       .  A
C302        H306   1.082       .  S
C303        C727   1.487       .  S
C303        C304   1.405       .  A
C304        H307   1.082       .  S
C308       C1596   1.496       .  S
C308        C309   1.412       .  A
C308        C313   1.411       .  A
C309        C310   1.408       .  A
C309        H314   1.084       .  S
C310        C836   1.491       .  S
C310        C311   1.405       .  A
C311        C312   1.401       .  A
C311        H315   1.083       .  S
C312        C736   1.493       .  S
C312        C313   1.406       .  A
C313        H316   1.083       .  S
C317       C1427   1.506       .  S
C317        C318   1.411       .  A
C317        C322   1.418       .  A
C318        C319   1.404       .  A
C318        H323   1.081       .  S
C319        C716   1.492       .  S
C319        C320   1.404       .  A
C320        C321   1.411       .  A
C320        H324   1.082       .  S
C321       C1147   1.507       .  S
C321        C322   1.417       .  A
C322        H325   1.080       .  S
C326        C696   1.479       .  S
C326        C327   1.404       .  A
C326        C331   1.402       .  A
C327        C328   1.407       .  A
C327        H332   1.082       .  S
C328        C647   1.484       .  S
C328        C329   1.406       .  A
C329        C330   1.403       .  A
C329        H333   1.083       .  S
C330        C667   1.481       .  S
C330        C331   1.402       .  A
C331        H334   1.084       .  S
C335       C1647   1.494       .  S
C335        C336   1.405       .  A
C335        C340   1.412       .  A
C336        C337   1.400       .  A
C336        H341   1.082       .  S
C337        C687   1.485       .  S
C337        C338   1.401       .  A
C338        C339   1.407       .  A
C338        H342   1.084       .  S
C339        C796   1.493       .  S
C339        C340   1.415       .  A
C340        H343   1.084       .  S
C344       C1176   1.493       .  S
C344        C345   1.411       .  A
C344        C349   1.402       .  A
C345        C346   1.416       .  A
C345        H350   1.082       .  S
C346       C1447   1.503       .  S
C346        C347   1.413       .  A
C347        C348   1.405       .  A
C347        H351   1.082       .  S
C348        C676   1.492       .  S
C348        C349   1.401       .  A
C349        H352   1.083       .  S
C353       C1867   1.496       .  S
C353        C354   1.408       .  A
C353        C358   1.412       .  A
C354        C355   1.402       .  A
C354        H359   1.083       .  S
C355        C656   1.484       .  S
C355        C356   1.400       .  A
C356        C357   1.404       .  A
C356        H360   1.083       .  S
C357        C627   1.487       .  S
C357        C358   1.410       .  A
C358        H361   1.079       .  S
C362        C607   1.482       .  S
C362        C363   1.403       .  A
C362        C367   1.407       .  A
C363        C364   1.401       .  A
C363        H368   1.085       .  S
C364        C576   1.483       .  S
C364        C365   1.403       .  A
C365        C366   1.407       .  A
C365        H369   1.085       .  S
C366        C596   1.486       .  S
C366        C367   1.409       .  A
C367        H370   1.082       .  S
C371       C1887   1.502       .  S
C371        C372   1.412       .  A
C371        C376   1.417       .  A
C372        C373   1.404       .  A
C372        H377   1.083       .  S
C373        C616   1.491       .  S
C373        C374   1.399       .  A
C374        C375   1.400       .  A
C374        H378   1.083       .  S
C375        C547   1.485       .  S
C375        C376   1.411       .  A
C376        H379   1.084       .  S
C380        C807   1.486       .  S
C380        C381   1.408       .  A
C380        C385   1.412       .  A
C381        C382   1.404       .  A
C381        H386   1.085       .  S
C382        C587   1.486       .  S
C382        C383   1.400       .  A
C383        C384   1.405       .  A
C383        H387   1.084       .  S
C384       C1607   1.492       .  S
C384        C385   1.411       .  A
C385        H388   1.083       .  S
C389       C1067   1.499       .  S
C389        C390   1.410       .  A
C389        C394   1.413       .  A
C390        C391   1.406       .  A
C390        H395   1.081       .  S
C391        C567   1.490       .  S
C391        C392   1.404       .  A
C392        C393   1.404       .  A
C392        H396   1.082       .  S
C393       C1516   1.492       .  S
C393        C394   1.410       .  A
C394        H397   1.082       .  S
C398        C516   1.494       .  S
C398        C399   1.408       .  A
C398        C403   1.409       .  A
C399        C400   1.409       .  A
C399        H404   1.084       .  S
C400        C496   1.497       .  S
C400        C401   1.411       .  A
C401        C402   1.410       .  A
C401        H405   1.081       .  S
C402        C527   1.500       .  S
C402        C403   1.409       .  A
C403        H406   1.082       .  S
C407       C1856   1.505       .  S
C407        C408   1.417       .  A
C407        C412   1.410       .  A
C408        C409   1.416       .  A
C408        H413   1.082       .  S
C409       C1136   1.512       .  S
C409        C410   1.414       .  A
C410        C411   1.409       .  A
C410        H414   1.080       .  S
C411        C536   1.496       .  S
C411        C412   1.405       .  A
C412        H415   1.084       .  S
C416        C467   1.497       .  S
C416        C417   1.410       .  A
C416        C421   1.410       .  A
C417        C418   1.410       .  A
C417        H422   1.082       .  S
C418       C1727   1.496       .  S
C418        C419   1.408       .  A
C419        C420   1.408       .  A
C419        H423   1.082       .  S
C420        C507   1.500       .  S
C420        C421   1.408       .  A
C421        H424   1.082       .  S
C425       C1547   1.503       .  S
C425        C426   1.411       .  A
C425        C430   1.414       .  A
C426        C427   1.404       .  A
C426        H431   1.085       .  S
C427        C487   1.496       .  S
C427        C428   1.403       .  A
C428        C429   1.409       .  A
C428        H432   1.086       .  S
C429        C847   1.496       .  S
C429        C430   1.415       .  A
C430        H433   1.081       .  S
O434        C442   1.267       .  A
O434       Co454   2.010       .  S
O435        C443   1.269       .  A
O435       Co455   1.996       .  S
O436        C444   1.297   1_565  A
O436       Co456   2.051       .  S
O437        C445   1.278   1_545  A
O437       Co457   1.994       .  S
O438        C444   1.278       .  A
O438       Co455   1.910       .  S
O439        C445   1.280       .  A
O439       Co454   2.018       .  S
O440        C443   1.268   1_655  A
O440       Co457   2.006       .  S
O441        C442   1.243   1_455  A
O441       Co456   1.936       .  S
C442       C1336   1.479       .  S
C443       C1187   1.499       .  S
C444        C996   1.466   1_545  S
C445        C636   1.482       .  S
O446        C459   1.261       .  A
O446       Co454   1.986       .  S
O447        C460   1.276   1_545  A
O447       Co455   2.033       .  S
O448        C461   1.294   1_455  A
O448       Co456   2.047       .  S
O449        C462   1.265   1_655  A
O449       Co457   1.970       .  S
O450        C462   1.274       .  A
O450       Co455   2.008       .  S
O451        C461   1.282       .  A
O451       Co454   1.903       .  S
O452        C459   1.257   1_545  A
O452       Co457   1.978       .  S
O453        C460   1.240       .  A
O453       Co456   1.959       .  S
Co454       O458   1.948   1_565  S
Co455       O458   1.982   1_455  S
Co456       O458   2.100   1_465  S
Co457       O458   2.029       .  S
C459        C556   1.488       .  S
C460        C747   1.484       .  S
C461        C476   1.472       .  S
C462        C896   1.476   1_455  S
C463        C464   1.406       .  A
C463        C468   1.403       .  A
C463        H473   1.088       .  S
C464        C469   1.489       .  S
C464        C465   1.405       .  A
C465        C466   1.400       .  A
C465        H470   1.081       .  S
C466        C467   1.408       .  A
C466        H471   1.083       .  S
C467        C468   1.409       .  A
C468        H472   1.080       .  S
C469        C474   1.406   1_455  A
C469        C478   1.406       .  A
C474        C475   1.398       .  A
C474        H479   1.082       .  S
C475        C476   1.402       .  A
C475        H480   1.085       .  S
C476        C477   1.407   1_655  A
C477        C478   1.398       .  A
C477        H481   1.083       .  S
C478        H482   1.083       .  S
C483        C484   1.410       .  A
C483        C488   1.404       .  A
C483        H493   1.078       .  S
C484        C489   1.499       .  S
C484        C485   1.407       .  A
C485        C486   1.400       .  A
C485        H490   1.083       .  S
C486        C487   1.408       .  A
C486        H491   1.081       .  S
C487        C488   1.406       .  A
C488        H492   1.085       .  S
C489        C494   1.408       .  A
C489        C498   1.409       .  A
C494        C495   1.404       .  A
C494        H499   1.084       .  S
C495        C496   1.408       .  A
C495        H500   1.081       .  S
C496        C497   1.406       .  A
C497        C498   1.401       .  A
C497        H501   1.084       .  S
C498        H502   1.080       .  S
C503        C504   1.406       .  A
C503        C508   1.401       .  A
C503        H513   1.081       .  S
C504        C509   1.494       .  S
C504        C505   1.406       .  A
C505        C506   1.403       .  A
C505        H510   1.084       .  S
C506        C507   1.410       .  A
C506        H511   1.082       .  S
C507        C508   1.408       .  A
C508        H512   1.083       .  S
C509        C514   1.407       .  A
C509        C518   1.408       .  A
C514        C515   1.401       .  A
C514        H519   1.083       .  S
C515        C516   1.406       .  A
C515        H520   1.081       .  S
C516        C517   1.407       .  A
C517        C518   1.404       .  A
C517        H521   1.084       .  S
C518        H522   1.083       .  S
C523        C524   1.408       .  A
C523        C528   1.405       .  A
C523        H533   1.081       .  S
C524        C529   1.499       .  S
C524        C525   1.407       .  A
C525        C526   1.403       .  A
C525        H530   1.083       .  S
C526        C527   1.408       .  A
C526        H531   1.083       .  S
C527        C528   1.408       .  A
C528        H532   1.085       .  S
C529        C534   1.408       .  A
C529        C538   1.409       .  A
C534        C535   1.405       .  A
C534        H539   1.086       .  S
C535        C536   1.408       .  A
C535        H540   1.082       .  S
C536        C537   1.405       .  A
C537        C538   1.403       .  A
C537        H541   1.086       .  S
C538        H542   1.077       .  S
C543        C544   1.406       .  A
C543        C548   1.398       .  A
C543        H553   1.085       .  S
C544        C549   1.497       .  S
C544        C545   1.412       .  A
C545        C546   1.405       .  A
C545        H550   1.081       .  S
C546        C547   1.402       .  A
C546        H551   1.084       .  S
C547        C548   1.406       .  A
C548        H552   1.079       .  S
C549        C554   1.412       .  A
C549        C558   1.403       .  A
C554        C555   1.405       .  A
C554        H559   1.083       .  S
C555        C556   1.405       .  A
C555        H560   1.084       .  S
C556        C557   1.410   1_565  A
C557        C558   1.398   1_545  A
C557        H561   1.082       .  S
C558        H562   1.084   1_565  S
C563        C564   1.405       .  A
C563        C568   1.397       .  A
C563        H573   1.087       .  S
C564        C569   1.488       .  S
C564        C565   1.407       .  A
C565        C566   1.400       .  A
C565        H570   1.081       .  S
C566        C567   1.406       .  A
C566        H571   1.085       .  S
C567        C568   1.407       .  A
C568        H572   1.079       .  S
C569        C574   1.407       .  A
C569        C578   1.407       .  A
C574        C575   1.398       .  A
C574        H579   1.081       .  S
C575        C576   1.404       .  A
C575        H580   1.086       .  S
C576        C577   1.405       .  A
C577        C578   1.399       .  A
C577        H581   1.083       .  S
C578        H582   1.084       .  S
C583        C584   1.406       .  A
C583        C588   1.398       .  A
C583        H593   1.080       .  S
C584        C589   1.488       .  S
C584        C585   1.406       .  A
C585        C586   1.401       .  A
C585        H590   1.084       .  S
C586        C587   1.405       .  A
C586        H591   1.080       .  S
C587        C588   1.405       .  A
C588        H592   1.087       .  S
C589        C594   1.404       .  A
C589        C598   1.408       .  A
C594        C595   1.398       .  A
C594        H599   1.087       .  S
C595        C596   1.407       .  A
C595        H600   1.079       .  S
C596        C597   1.404       .  A
C597        C598   1.402       .  A
C597        H601   1.086       .  S
C598        H602   1.080       .  S
C603        C604   1.404       .  A
C603        C608   1.396       .  A
C603        H613   1.085       .  S
C604        C609   1.488       .  S
C604        C605   1.409       .  A
C605        C606   1.401       .  A
C605        H610   1.080       .  S
C606        C607   1.403       .  A
C606        H611   1.088       .  S
C607        C608   1.405       .  A
C608        H612   1.081       .  S
C609        C614   1.407       .  A
C609        C618   1.404       .  A
C614        C615   1.398       .  A
C614        H619   1.081       .  S
C615        C616   1.406       .  A
C615        H620   1.083       .  S
C616        C617   1.408       .  A
C617        C618   1.399       .  A
C617        H621   1.082       .  S
C618        H622   1.082       .  S
C623        C624   1.403       .  A
C623        C628   1.398       .  A
C623        H633   1.084       .  S
C624        C629   1.482       .  S
C624        C625   1.406       .  A
C625        C626   1.400       .  A
C625        H630   1.084       .  S
C626        C627   1.405       .  A
C626        H631   1.081       .  S
C627        C628   1.408       .  A
C628        H632   1.082       .  S
C629        C634   1.405       .  A
C629        C638   1.405   1_545  A
C634        C635   1.399       .  A
C634        H639   1.085       .  S
C635        C636   1.405   1_545  A
C635        H640   1.080       .  S
C636        C637   1.407       .  A
C637        C638   1.399       .  A
C637        H641   1.088       .  S
C638        H642   1.079       .  S
C643        C644   1.404       .  A
C643        C648   1.397       .  A
C643        H653   1.083       .  S
C644        C649   1.484       .  S
C644        C645   1.406       .  A
C645        C646   1.398       .  A
C645        H650   1.082       .  S
C646        C647   1.405       .  A
C646        H651   1.083       .  S
C647        C648   1.406       .  A
C648        H652   1.082       .  S
C649        C654   1.406       .  A
C649        C658   1.405       .  A
C654        C655   1.398       .  A
C654        H659   1.083       .  S
C655        C656   1.405       .  A
C655        H660   1.083       .  S
C656        C657   1.405       .  A
C657        C658   1.397       .  A
C657        H661   1.082       .  S
C658        H662   1.082       .  S
C663        C664   1.406       .  A
C663        C668   1.401       .  A
C663        H673   1.082       .  S
C664        C669   1.486       .  S
C664        C665   1.406       .  A
C665        C666   1.394       .  A
C665        H670   1.083       .  S
C666        C667   1.403       .  A
C666        H671   1.082       .  S
C667        C668   1.405       .  A
C668        H672   1.083       .  S
C669        C674   1.407       .  A
C669        C678   1.403       .  A
C674        C675   1.402       .  A
C674        H679   1.082       .  S
C675        C676   1.407       .  A
C675        H680   1.085       .  S
C676        C677   1.408       .  A
C677        C678   1.393       .  A
C677        H681   1.080       .  S
C678        H682   1.085       .  S
C683        C684   1.406       .  A
C683        C688   1.399       .  A
C683        H693   1.084       .  S
C684        C689   1.487       .  S
C684        C685   1.406       .  A
C685        C686   1.396       .  A
C685        H690   1.079       .  S
C686        C687   1.405       .  A
C686        H691   1.085       .  S
C687        C688   1.406       .  A
C688        H692   1.080       .  S
C689        C694   1.408       .  A
C689        C698   1.406       .  A
C694        C695   1.399       .  A
C694        H699   1.081       .  S
C695        C696   1.403       .  A
C695        H700   1.085       .  S
C696        C697   1.404       .  A
C697        C698   1.396       .  A
C697        H701   1.081       .  S
C698        H702   1.083       .  S
C703        C704   1.409       .  A
C703        C708   1.402       .  A
C703        H713   1.080       .  S
C704        C709   1.495       .  S
C704        C705   1.406       .  A
C705        C706   1.401       .  A
C705        H710   1.087       .  S
C706        C707   1.407       .  A
C706        H711   1.080       .  S
C707        C708   1.405       .  A
C708        H712   1.089       .  S
C709        C714   1.407       .  A
C709        C718   1.409       .  A
C714        C715   1.402       .  A
C714        H719   1.088       .  S
C715        C716   1.407       .  A
C715        H720   1.079       .  S
C716        C717   1.405       .  A
C717        C718   1.401       .  A
C717        H721   1.087       .  S
C718        H722   1.081       .  S
C723        C724   1.408       .  A
C723        C728   1.399       .  A
C723        H733   1.079       .  S
C724        C729   1.493       .  S
C724        C725   1.408       .  A
C725        C726   1.401       .  A
C725        H730   1.085       .  S
C726        C727   1.406       .  A
C726        H731   1.083       .  S
C727        C728   1.404       .  A
C728        H732   1.084       .  S
C729        C734   1.408       .  A
C729        C738   1.406       .  A
C734        C735   1.400       .  A
C734        H739   1.083       .  S
C735        C736   1.406       .  A
C735        H740   1.080       .  S
C736        C737   1.408       .  A
C737        C738   1.399       .  A
C737        H741   1.085       .  S
C738        H742   1.081       .  S
C743        C744   1.410       .  A
C743        C748   1.396       .  A
C743        H753   1.081       .  S
C744        C749   1.505       .  S
C744        C745   1.412   1_545  A
C745        C746   1.408       .  A
C745        H750   1.081       .  S
C746        C747   1.415       .  A
C746        H751   1.083       .  S
C747        C748   1.395   1_565  A
C748        H752   1.084       .  S
C749        C754   1.410       .  A
C749        C758   1.411       .  A
C754        C755   1.401       .  A
C754        H759   1.082       .  S
C755        C756   1.407       .  A
C755        H760   1.085       .  S
C756        C757   1.407       .  A
C757        C758   1.408       .  A
C757        H761   1.083       .  S
C758        H762   1.080   1_545  S
C763        C764   1.407       .  A
C763        C768   1.400       .  A
C763        H773   1.081       .  S
C764        C769   1.492       .  S
C764        C765   1.408       .  A
C765        C766   1.400       .  A
C765        H770   1.085       .  S
C766        C767   1.406       .  A
C766        H771   1.081       .  S
C767        C768   1.406       .  A
C768        H772   1.083       .  S
C769        C774   1.408       .  A
C769        C778   1.405       .  A
C774        C775   1.402       .  A
C774        H779   1.081       .  S
C775        C776   1.405       .  A
C775        H780   1.080       .  S
C776        C777   1.409       .  A
C777        C778   1.397       .  A
C777        H781   1.084       .  S
C778        H782   1.083       .  S
C783        C784   1.408       .  A
C783        C788   1.402       .  A
C783        H793   1.084       .  S
C784        C789   1.491       .  S
C784        C785   1.405   1_655  A
C785        C786   1.399       .  A
C785        H790   1.083       .  S
C786        C787   1.408       .  A
C786        H791   1.083       .  S
C787        C788   1.407   1_455  A
C788        H792   1.083       .  S
C789        C794   1.404       .  A
C789        C798   1.409       .  A
C794        C795   1.399       .  A
C794        H799   1.085       .  S
C795        C796   1.409       .  A
C795        H800   1.083       .  S
C796        C797   1.405       .  A
C797        C798   1.402       .  A
C797        H801   1.084       .  S
C798        H802   1.082       .  S
C803        C804   1.411       .  A
C803        C808   1.403       .  A
C803        H813   1.080   1_655  S
C804        C809   1.500       .  S
C804        C805   1.409       .  A
C805        C806   1.400       .  A
C805        H810   1.083       .  S
C806        C807   1.404       .  A
C806        H811   1.083       .  S
C807        C808   1.403       .  A
C808        H812   1.085       .  S
C809        C814   1.407   1_655  A
C809        C818   1.411       .  A
C814        C815   1.401       .  A
C814        H819   1.083       .  S
C815        C816   1.407       .  A
C815        H820   1.082       .  S
C816        C817   1.403   1_455  A
C817        C818   1.402       .  A
C817        H821   1.084       .  S
C818        H822   1.080       .  S
C823        C824   1.404       .  A
C823        C828   1.400   1_455  A
C823        H833   1.081   1_455  S
C824        C829   1.481       .  S
C824        C825   1.405       .  A
C825        C826   1.396       .  A
C825        H830   1.080       .  S
C826        C827   1.403       .  A
C826        H831   1.084       .  S
C827        C828   1.407   1_455  A
C828        H832   1.083       .  S
C829        C834   1.407       .  A
C829        C838   1.401       .  A
C834        C835   1.403       .  A
C834        H839   1.085       .  S
C835        C836   1.407       .  A
C835        H840   1.082       .  S
C836        C837   1.408       .  A
C837        C838   1.394       .  A
C837        H841   1.082       .  S
C838        H842   1.082       .  S
C843        C844   1.411       .  A
C843        C848   1.406       .  A
C843        H853   1.074   1_554  S
C844        C849   1.498       .  S
C844        C845   1.405       .  A
C845        C846   1.398       .  A
C845        H850   1.089       .  S
C846        C847   1.408       .  A
C846        H851   1.078       .  S
C847        C848   1.406       .  A
C848        H852   1.088       .  S
C849        C854   1.409   1_554  A
C849        C858   1.408       .  A
C854        C855   1.405       .  A
C854        H859   1.074       .  S
C855        C856   1.406       .  A
C855        H860   1.084       .  S
C856        C857   1.404   1_556  A
C857        C858   1.400       .  A
C857        H861   1.084       .  S
C858        H862   1.077       .  S
C863        C864   1.406       .  A
C863        C868   1.391       .  A
C863        H873   1.080       .  S
C864        C869   1.498       .  S
C864        C865   1.412   1_554  A
C865        C866   1.409       .  A
C865        H870   1.083       .  S
C866        C867   1.406       .  A
C866        H871   1.081       .  S
C867        C868   1.404   1_556  A
C868        H872   1.084       .  S
C869        C874   1.406       .  A
C869        C878   1.407       .  A
C874        C875   1.395       .  A
C874        H879   1.082       .  S
C875        C876   1.409       .  A
C875        H880   1.077       .  S
C876        C877   1.413       .  A
C877        C878   1.405       .  A
C877        H881   1.082       .  S
C878        H882   1.082   1_554  S
C883        C884   1.408       .  A
C883        C888   1.404       .  A
C883        H893   1.084       .  S
C884        C889   1.495       .  S
C884        C885   1.406       .  A
C885        C886   1.400       .  A
C885        H890   1.082       .  S
C886        C887   1.407       .  A
C886        H891   1.083       .  S
C887        C888   1.408       .  A
C888        H892   1.083       .  S
C889        C894   1.409   1_655  A
C889        C898   1.407       .  A
C894        C895   1.404       .  A
C894        H899   1.082       .  S
C895        C896   1.405   1_455  A
C895        H900   1.085       .  S
C896        C897   1.404       .  A
C897        C898   1.397       .  A
C897        H901   1.084       .  S
C898        H902   1.082       .  S
C903        C904   1.405       .  A
C903        C908   1.400       .  A
C903        H913   1.086       .  S
C904        C909   1.491       .  S
C904        C905   1.408       .  A
C905        C906   1.400       .  A
C905        H910   1.081       .  S
C906        C907   1.406       .  A
C906        H911   1.085       .  S
C907        C908   1.408       .  A
C908        H912   1.080       .  S
C909        C914   1.409       .  A
C909        C918   1.406       .  A
C914        C915   1.401       .  A
C914        H919   1.079       .  S
C915        C916   1.404       .  A
C915        H920   1.085       .  S
C916        C917   1.407       .  A
C917        C918   1.400       .  A
C917        H921   1.081       .  S
C918        H922   1.086       .  S
C923        C924   1.407       .  A
C923        C928   1.401       .  A
C923        H933   1.083       .  S
C924        C929   1.489       .  S
C924        C925   1.405       .  A
C925        C926   1.399       .  A
C925        H930   1.084       .  S
C926        C927   1.407       .  A
C926        H931   1.080       .  S
C927        C928   1.407       .  A
C928        H932   1.084       .  S
C929        C934   1.407       .  A
C929        C938   1.405       .  A
C934        C935   1.401       .  A
C934        H939   1.081       .  S
C935        C936   1.404       .  A
C935        H940   1.082       .  S
C936        C937   1.407       .  A
C937        C938   1.399       .  A
C937        H941   1.083       .  S
C938        H942   1.085       .  S
C943        C944   1.408       .  A
C943        C948   1.402       .  A
C943        H953   1.085       .  S
C944        C949   1.495       .  S
C944        C945   1.408       .  A
C945        C946   1.398       .  A
C945        H950   1.077       .  S
C946        C947   1.405       .  A
C946        H951   1.085       .  S
C947        C948   1.407       .  A
C948        H952   1.082       .  S
C949        C954   1.408       .  A
C949        C958   1.409       .  A
C954        C955   1.400       .  A
C954        H959   1.082       .  S
C955        C956   1.406       .  A
C955        H960   1.084       .  S
C956        C957   1.404       .  A
C957        C958   1.400       .  A
C957        H961   1.084       .  S
C958        H962   1.081       .  S
C963        C964   1.403       .  A
C963        C968   1.396       .  A
C963        H973   1.085       .  S
C964        C969   1.485       .  S
C964        C965   1.406       .  A
C965        C966   1.401       .  A
C965        H970   1.081       .  S
C966        C967   1.406       .  A
C966        H971   1.083       .  S
C967        C968   1.409       .  A
C968        H972   1.082       .  S
C969        C974   1.406       .  A
C969        C978   1.405       .  A
C974        C975   1.396       .  A
C974        H979   1.083       .  S
C975        C976   1.405       .  A
C975        H980   1.086       .  S
C976        C977   1.407   1_455  A
C977        C978   1.399   1_655  A
C977        H981   1.081       .  S
C978        H982   1.085   1_455  S
C983        C984   1.405       .  A
C983        C988   1.401       .  A
C983        H993   1.084       .  S
C984        C989   1.493       .  S
C984        C985   1.409       .  A
C985        C986   1.393       .  A
C985        H990   1.078       .  S
C986        C987   1.406       .  A
C986        H991   1.085       .  S
C987        C988   1.411       .  A
C988        H992   1.079       .  S
C989        C994   1.415   1_565  A
C989        C998   1.402       .  A
C994        C995   1.406       .  A
C994        H999   1.077       .  S
C995        C996   1.401   1_545  A
C995       H1000   1.084       .  S
C996        C997   1.403       .  A
C997        C998   1.381       .  A
C997       H1001   1.083       .  S
C998       H1002   1.082       .  S
C1003      C1004   1.405       .  A
C1003      C1008   1.394       .  A
C1003      H1013   1.082       .  S
C1004      C1009   1.481       .  S
C1004      C1005   1.404       .  A
C1005      C1006   1.397       .  A
C1005      H1010   1.085       .  S
C1006      C1007   1.406       .  A
C1006      H1011   1.082       .  S
C1007      C1008   1.405       .  A
C1008      H1012   1.085       .  S
C1009      C1014   1.405       .  A
C1009      C1018   1.406       .  A
C1014      C1015   1.395       .  A
C1014      H1019   1.085       .  S
C1015      C1016   1.405       .  A
C1015      H1020   1.085       .  S
C1016      C1017   1.403       .  A
C1017      C1018   1.396       .  A
C1017      H1021   1.084       .  S
C1018      H1022   1.080       .  S
C1023      C1024   1.406       .  A
C1023      C1028   1.396       .  A
C1023      H1033   1.083       .  S
C1024      C1029   1.483       .  S
C1024      C1025   1.404       .  A
C1025      C1026   1.397       .  A
C1025      H1030   1.082       .  S
C1026      C1027   1.405       .  A
C1026      H1031   1.082       .  S
C1027      C1028   1.403       .  A
C1028      H1032   1.082       .  S
C1029      C1034   1.405       .  A
C1029      C1038   1.406       .  A
C1034      C1035   1.394       .  A
C1034      H1039   1.083       .  S
C1035      C1036   1.404       .  A
C1035      H1040   1.083       .  S
C1036      C1037   1.404       .  A
C1037      C1038   1.398       .  A
C1037      H1041   1.082       .  S
C1038      H1042   1.083       .  S
C1043      C1044   1.406       .  A
C1043      C1048   1.399       .  A
C1043      H1053   1.084       .  S
C1044      C1049   1.485       .  S
C1044      C1045   1.406       .  A
C1045      C1046   1.394       .  A
C1045      H1050   1.081       .  S
C1046      C1047   1.403       .  A
C1046      H1051   1.085       .  S
C1047      C1048   1.406       .  A
C1048      H1052   1.084       .  S
C1049      C1054   1.405       .  A
C1049      C1058   1.405       .  A
C1054      C1055   1.399       .  A
C1054      H1059   1.082       .  S
C1055      C1056   1.407       .  A
C1055      H1060   1.083       .  S
C1056      C1057   1.407       .  A
C1057      C1058   1.395       .  A
C1057      H1061   1.081       .  S
C1058      H1062   1.083       .  S
C1063      C1064   1.407       .  A
C1063      C1068   1.403       .  A
C1063      H1073   1.080       .  S
C1064      C1069   1.489       .  S
C1064      C1065   1.403       .  A
C1065      C1066   1.401       .  A
C1065      H1070   1.082       .  S
C1066      C1067   1.410       .  A
C1066      H1071   1.081       .  S
C1067      C1068   1.408       .  A
C1068      H1072   1.085       .  S
C1069      C1074   1.403       .  A
C1069      C1078   1.407       .  A
C1074      C1075   1.400       .  A
C1074      H1079   1.086       .  S
C1075      C1076   1.412       .  A
C1075      H1080   1.083   1_554  S
C1076      C1077   1.405       .  A
C1077      C1078   1.403       .  A
C1077      H1081   1.082       .  S
C1078      H1082   1.081       .  S
C1083      C1084   1.406   1_554  A
C1083      C1088   1.397       .  A
C1083      H1093   1.085       .  S
C1084      C1089   1.485       .  S
C1084      C1085   1.406       .  A
C1085      C1086   1.396       .  A
C1085      H1090   1.081       .  S
C1086      C1087   1.404   1_556  A
C1086      H1091   1.085       .  S
C1087      C1088   1.404       .  A
C1088      H1092   1.082       .  S
C1089      C1094   1.406       .  A
C1089      C1098   1.405       .  A
C1094      C1095   1.397       .  A
C1094      H1099   1.082       .  S
C1095      C1096   1.405       .  A
C1095      H1100   1.082       .  S
C1096      C1097   1.408       .  A
C1097      C1098   1.399       .  A
C1097      H1101   1.084       .  S
C1098      H1102   1.082       .  S
C1103      C1104   1.409       .  A
C1103      C1108   1.396       .  A
C1103      H1113   1.082       .  S
C1104      C1109   1.501       .  S
C1104      C1105   1.410   1_545  A
C1105      C1106   1.404       .  A
C1105      H1110   1.080       .  S
C1106      C1107   1.404       .  A
C1106      H1111   1.084       .  S
C1107      C1108   1.402   1_565  A
C1108      H1112   1.082       .  S
C1109      C1114   1.409       .  A
C1109      C1118   1.409       .  A
C1114      C1115   1.399       .  A
C1114      H1119   1.080       .  S
C1115      C1116   1.406       .  A
C1115      H1120   1.083       .  S
C1116      C1117   1.409       .  A
C1117      C1118   1.407       .  A
C1117      H1121   1.080       .  S
C1118      H1122   1.084   1_545  S
C1123      C1124   1.407       .  A
C1123      C1128   1.396       .  A
C1123      H1133   1.080       .  S
C1124      C1129   1.501       .  S
C1124      C1125   1.411   1_565  A
C1125      C1126   1.413       .  A
C1125      H1130   1.085       .  S
C1126      C1127   1.418       .  A
C1126      H1131   1.083       .  S
C1127      C1128   1.397   1_545  A
C1128      H1132   1.083       .  S
C1129      C1134   1.406       .  A
C1129      C1138   1.408       .  A
C1134      C1135   1.404       .  A
C1134      H1139   1.082       .  S
C1135      C1136   1.411       .  A
C1135      H1140   1.079       .  S
C1136      C1137   1.412       .  A
C1137      C1138   1.409       .  A
C1137      H1141   1.082       .  S
C1138      H1142   1.081       .  S
C1143      C1144   1.404       .  A
C1143      C1148   1.401       .  A
C1143      H1153   1.083       .  S
C1144      C1149   1.495       .  S
C1144      C1145   1.408       .  A
C1145      C1146   1.407       .  A
C1145      H1150   1.083       .  S
C1146      C1147   1.410       .  A
C1146      H1151   1.082       .  S
C1147      C1148   1.411       .  A
C1148      H1152   1.082       .  S
C1149      C1154   1.407       .  A
C1149      C1158   1.408       .  A
C1154      C1155   1.399       .  A
C1154      H1159   1.083       .  S
C1155      C1156   1.408       .  A
C1155      H1160   1.083       .  S
C1156      C1157   1.402   1_554  A
C1157      C1158   1.402   1_556  A
C1157      H1161   1.083       .  S
C1158      H1162   1.080   1_554  S
C1163      C1164   1.409       .  A
C1163      C1168   1.399       .  A
C1163      H1173   1.079       .  S
C1164      C1169   1.489       .  S
C1164      C1165   1.403   1_556  A
C1165      C1166   1.397       .  A
C1165      H1170   1.084       .  S
C1166      C1167   1.414       .  A
C1166      H1171   1.079       .  S
C1167      C1168   1.395   1_554  A
C1168      H1172   1.087       .  S
C1169      C1174   1.403       .  A
C1169      C1178   1.409       .  A
C1174      C1175   1.399       .  A
C1174      H1179   1.087       .  S
C1175      C1176   1.411       .  A
C1175      H1180   1.082       .  S
C1176      C1177   1.404       .  A
C1177      C1178   1.402       .  A
C1177      H1181   1.083       .  S
C1178      H1182   1.080       .  S
C1183      C1184   1.409       .  A
C1183      C1188   1.402   1_455  A
C1183      H1193   1.081   1_455  S
C1184      C1189   1.512       .  S
C1184      C1185   1.414       .  A
C1185      C1186   1.407       .  A
C1185      H1190   1.082       .  S
C1186      C1187   1.406       .  A
C1186      H1191   1.084       .  S
C1187      C1188   1.411   1_455  A
C1188      H1192   1.084       .  S
C1189      C1194   1.415       .  A
C1189      C1198   1.411       .  A
C1194      C1195   1.406       .  A
C1194      H1199   1.078       .  S
C1195      C1196   1.402       .  A
C1195      H1200   1.085       .  S
C1196      C1197   1.405       .  A
C1197      C1198   1.403       .  A
C1197      H1201   1.083       .  S
C1198      H1202   1.083       .  S
C1203      C1204   1.409       .  A
C1203      C1208   1.402       .  A
C1203      H1213   1.084   1_545  S
C1204      C1209   1.507       .  S
C1204      C1205   1.412       .  A
C1205      C1206   1.404       .  A
C1205      H1210   1.085       .  S
C1206      C1207   1.405       .  A
C1206      H1211   1.079       .  S
C1207      C1208   1.407       .  A
C1208      H1212   1.083   1_545  S
C1209      C1214   1.415       .  A
C1209      C1218   1.405       .  A
C1214      C1215   1.408       .  A
C1214      H1219   1.080       .  S
C1215      C1216   1.406       .  A
C1215      H1220   1.085       .  S
C1216      C1217   1.412       .  A
C1217      C1218   1.398       .  A
C1217      H1221   1.081       .  S
C1218      H1222   1.086       .  S
C1223      C1224   1.407       .  A
C1223      C1228   1.400       .  A
C1223      H1233   1.082       .  S
C1224      C1229   1.489       .  S
C1224      C1225   1.404   1_556  A
C1225      C1226   1.403       .  A
C1225      H1230   1.082       .  S
C1226      C1227   1.409   1_554  A
C1226      H1231   1.082       .  S
C1227      C1228   1.405       .  A
C1228      H1232   1.084       .  S
C1229      C1234   1.403       .  A
C1229      C1238   1.408       .  A
C1234      C1235   1.398       .  A
C1234      H1239   1.081       .  S
C1235      C1236   1.408       .  A
C1235      H1240   1.085       .  S
C1236      C1237   1.406       .  A
C1237      C1238   1.405       .  A
C1237      H1241   1.083       .  S
C1238      H1242   1.082       .  S
C1243      C1244   1.405       .  A
C1243      C1248   1.400       .  A
C1243      H1253   1.088       .  S
C1244      C1249   1.488       .  S
C1244      C1245   1.407       .  A
C1245      C1246   1.398       .  A
C1245      H1250   1.080       .  S
C1246      C1247   1.404       .  A
C1246      H1251   1.088       .  S
C1247      C1248   1.407       .  A
C1248      H1252   1.079       .  S
C1249      C1254   1.407       .  A
C1249      C1258   1.406       .  A
C1254      C1255   1.399       .  A
C1254      H1259   1.081       .  S
C1255      C1256   1.406       .  A
C1255      H1260   1.089       .  S
C1256      C1257   1.404       .  A
C1257      C1258   1.398       .  A
C1257      H1261   1.080       .  S
C1258      H1262   1.085       .  S
C1263      C1264   1.406       .  A
C1263      C1268   1.399       .  A
C1263      H1273   1.081       .  S
C1264      C1269   1.485       .  S
C1264      C1265   1.405       .  A
C1265      C1266   1.398       .  A
C1265      H1270   1.083       .  S
C1266      C1267   1.406       .  A
C1266      H1271   1.080       .  S
C1267      C1268   1.406       .  A
C1268      H1272   1.086       .  S
C1269      C1274   1.404       .  A
C1269      C1278   1.406       .  A
C1274      C1275   1.400       .  A
C1274      H1279   1.087       .  S
C1275      C1276   1.407       .  A
C1275      H1280   1.078       .  S
C1276      C1277   1.405       .  A
C1277      C1278   1.398       .  A
C1277      H1281   1.088       .  S
C1278      H1282   1.079       .  S
C1283      C1284   1.405       .  A
C1283      C1288   1.397       .  A
C1283      H1293   1.083       .  S
C1284      C1289   1.482       .  S
C1284      C1285   1.405       .  A
C1285      C1286   1.397       .  A
C1285      H1290   1.084       .  S
C1286      C1287   1.405       .  A
C1286      H1291   1.080       .  S
C1287      C1288   1.405       .  A
C1288      H1292   1.084       .  S
C1289      C1294   1.404       .  A
C1289      C1298   1.405       .  A
C1294      C1295   1.396       .  A
C1294      H1299   1.083       .  S
C1295      C1296   1.406       .  A
C1295      H1300   1.082       .  S
C1296      C1297   1.406       .  A
C1297      C1298   1.398       .  A
C1297      H1301   1.086       .  S
C1298      H1302   1.083       .  S
C1303      C1304   1.403       .  A
C1303      C1308   1.401       .  A
C1303      H1313   1.081       .  S
C1304      C1309   1.495       .  S
C1304      C1305   1.407       .  A
C1305      C1306   1.409       .  A
C1305      H1310   1.085       .  S
C1306      C1307   1.412       .  A
C1306      H1311   1.079       .  S
C1307      C1308   1.412       .  A
C1308      H1312   1.083       .  S
C1309      C1314   1.407       .  A
C1309      C1318   1.407   1_556  A
C1314      C1315   1.402       .  A
C1314      H1319   1.084       .  S
C1315      C1316   1.406       .  A
C1315      H1320   1.083       .  S
C1316      C1317   1.408   1_556  A
C1317      C1318   1.406       .  A
C1317      H1321   1.083       .  S
C1318      H1322   1.082       .  S
C1323      C1324   1.409       .  A
C1323      C1328   1.407       .  A
C1323      H1333   1.081       .  S
C1324      C1329   1.500       .  S
C1324      C1325   1.405       .  A
C1325      C1326   1.404       .  A
C1325      H1330   1.086       .  S
C1326      C1327   1.413       .  A
C1326      H1331   1.079       .  S
C1327      C1328   1.410       .  A
C1328      H1332   1.083       .  S
C1329      C1334   1.406   1_655  A
C1329      C1338   1.410       .  A
C1334      C1335   1.402       .  A
C1334      H1339   1.087       .  S
C1335      C1336   1.414   1_455  A
C1335      H1340   1.082       .  S
C1336      C1337   1.396       .  A
C1337      C1338   1.402       .  A
C1337      H1341   1.085       .  S
C1338      H1342   1.079       .  S
C1343      C1344   1.408       .  A
C1343      C1348   1.403       .  A
C1343      H1353   1.083       .  S
C1344      C1349   1.495       .  S
C1344      C1345   1.406       .  A
C1345      C1346   1.399       .  A
C1345      H1350   1.082       .  S
C1346      C1347   1.408       .  A
C1346      H1351   1.084       .  S
C1347      C1348   1.407       .  A
C1348      H1352   1.082       .  S
C1349      C1354   1.408       .  A
C1349      C1358   1.408       .  A
C1354      C1355   1.402       .  A
C1354      H1359   1.083       .  S
C1355      C1356   1.405       .  A
C1355      H1360   1.084       .  S
C1356      C1357   1.404       .  A
C1357      C1358   1.401       .  A
C1357      H1361   1.084       .  S
C1358      H1362   1.082       .  S
C1363      C1364   1.407       .  A
C1363      C1368   1.401       .  A
C1363      H1373   1.082       .  S
C1364      C1369   1.495       .  S
C1364      C1365   1.409       .  A
C1365      C1366   1.401       .  A
C1365      H1370   1.082       .  S
C1366      C1367   1.404       .  A
C1366      H1371   1.083       .  S
C1367      C1368   1.406       .  A
C1368      H1372   1.084       .  S
C1369      C1374   1.408       .  A
C1369      C1378   1.407       .  A
C1374      C1375   1.402       .  A
C1374      H1379   1.081       .  S
C1375      C1376   1.406       .  A
C1375      H1380   1.086       .  S
C1376      C1377   1.407       .  A
C1377      C1378   1.401       .  A
C1377      H1381   1.083       .  S
C1378      H1382   1.082       .  S
C1383      C1384   1.408       .  A
C1383      C1388   1.406       .  A
C1383      H1393   1.083       .  S
C1384      C1389   1.499       .  S
C1384      C1385   1.407       .  A
C1385      C1386   1.402       .  A
C1385      H1390   1.082       .  S
C1386      C1387   1.410       .  A
C1386      H1391   1.085       .  S
C1387      C1388   1.409       .  A
C1388      H1392   1.081       .  S
C1389      C1394   1.410       .  A
C1389      C1398   1.407       .  A
C1394      C1395   1.408   1_565  A
C1394      H1399   1.081   1_565  S
C1395      C1396   1.408   1_545  A
C1395      H1400   1.084       .  S
C1396      C1397   1.407       .  A
C1397      C1398   1.402       .  A
C1397      H1401   1.082       .  S
C1398      H1402   1.084       .  S
C1403      C1404   1.408       .  A
C1403      C1408   1.402       .  A
C1403      H1413   1.085       .  S
C1404      C1409   1.499       .  S
C1404      C1405   1.409       .  A
C1405      C1406   1.403       .  A
C1405      H1410   1.080       .  S
C1406      C1407   1.406       .  A
C1406      H1411   1.087       .  S
C1407      C1408   1.407       .  A
C1408      H1412   1.082       .  S
C1409      C1414   1.410       .  A
C1409      C1418   1.407       .  A
C1414      C1415   1.403       .  A
C1414      H1419   1.077       .  S
C1415      C1416   1.405       .  A
C1415      H1420   1.086       .  S
C1416      C1417   1.409       .  A
C1417      C1418   1.404       .  A
C1417      H1421   1.080       .  S
C1418      H1422   1.086       .  S
C1423      C1424   1.404       .  A
C1423      C1428   1.403       .  A
C1423      H1433   1.085       .  S
C1424      C1429   1.492       .  S
C1424      C1425   1.407       .  A
C1425      C1426   1.405       .  A
C1425      H1430   1.083       .  S
C1426      C1427   1.410       .  A
C1426      H1431   1.082       .  S
C1427      C1428   1.412       .  A
C1428      H1432   1.080       .  S
C1429      C1434   1.408       .  A
C1429      C1438   1.406       .  A
C1434      C1435   1.399       .  A
C1434      H1439   1.080       .  S
C1435      C1436   1.396       .  A
C1435      H1440   1.084       .  S
C1436      C1437   1.419       .  A
C1437      C1438   1.407       .  A
C1437      H1441   1.083       .  S
C1438      H1442   1.085       .  S
C1443      C1444   1.407       .  A
C1443      C1448   1.396       .  A
C1443      H1453   1.083       .  S
C1444      C1449   1.497       .  S
C1444      C1445   1.407       .  A
C1445      C1446   1.406       .  A
C1445      H1450   1.081       .  S
C1446      C1447   1.411       .  A
C1446      H1451   1.082       .  S
C1447      C1448   1.408       .  A
C1448      H1452   1.081       .  S
C1449      C1454   1.404       .  A
C1449      C1458   1.414       .  A
C1454      C1455   1.386       .  A
C1454      H1459   1.081       .  S
C1455      C1456   1.403       .  A
C1455      H1460   1.084       .  S
C1456      C1457   1.403       .  A
C1457      C1458   1.409       .  A
C1457      H1461   1.084       .  S
C1458      H1462   1.081       .  S
C1463      C1464   1.406       .  A
C1463      C1468   1.392       .  A
C1463      H1473   1.081       .  S
C1464      C1469   1.487       .  S
C1464      C1465   1.407       .  A
C1465      C1466   1.397       .  A
C1465      H1470   1.084       .  S
C1466      C1467   1.401       .  A
C1466      H1471   1.082       .  S
C1467      C1468   1.404       .  A
C1468      H1472   1.085       .  S
C1469      C1474   1.407       .  A
C1469      C1478   1.406       .  A
C1474      C1475   1.401       .  A
C1474      H1479   1.083       .  S
C1475      C1476   1.405       .  A
C1475      H1480   1.081       .  S
C1476      C1477   1.404       .  A
C1477      C1478   1.395       .  A
C1477      H1481   1.086       .  S
C1478      H1482   1.082       .  S
C1483      C1484   1.410       .  A
C1483      C1488   1.403       .  A
C1483      H1493   1.084       .  S
C1484      C1489   1.500       .  S
C1484      C1485   1.407       .  A
C1485      C1486   1.400       .  A
C1485      H1490   1.080       .  S
C1486      C1487   1.411       .  A
C1486      H1491   1.084       .  S
C1487      C1488   1.397       .  A
C1488      H1492   1.081       .  S
C1489      C1494   1.406       .  A
C1489      C1498   1.410       .  A
C1494      C1495   1.404       .  A
C1494      H1499   1.083       .  S
C1495      C1496   1.412       .  A
C1495      H1500   1.085       .  S
C1496      C1497   1.408       .  A
C1497      C1498   1.406       .  A
C1497      H1501   1.082       .  S
C1498      H1502   1.080       .  S
C1503      C1504   1.406       .  A
C1503      C1508   1.397       .  A
C1503      H1513   1.080       .  S
C1504      C1509   1.498       .  S
C1504      C1505   1.412       .  A
C1505      C1506   1.405       .  A
C1505      H1510   1.082       .  S
C1506      C1507   1.405       .  A
C1506      H1511   1.083       .  S
C1507      C1508   1.408       .  A
C1508      H1512   1.087       .  S
C1509      C1514   1.410       .  A
C1509      C1518   1.408       .  A
C1514      C1515   1.402       .  A
C1514      H1519   1.087       .  S
C1515      C1516   1.405       .  A
C1515      H1520   1.082       .  S
C1516      C1517   1.406       .  A
C1517      C1518   1.399       .  A
C1517      H1521   1.083       .  S
C1518      H1522   1.084       .  S
C1523      C1524   1.406       .  A
C1523      C1528   1.399       .  A
C1523      H1533   1.080       .  S
C1524      C1529   1.486       .  S
C1524      C1525   1.405       .  A
C1525      C1526   1.399       .  A
C1525      H1530   1.086       .  S
C1526      C1527   1.407       .  A
C1526      H1531   1.081       .  S
C1527      C1528   1.405       .  A
C1528      H1532   1.084       .  S
C1529      C1534   1.405       .  A
C1529      C1538   1.405       .  A
C1534      C1535   1.401       .  A
C1534      H1539   1.082       .  S
C1535      C1536   1.409       .  A
C1535      H1540   1.083       .  S
C1536      C1537   1.407       .  A
C1537      C1538   1.396       .  A
C1537      H1541   1.081       .  S
C1538      H1542   1.082       .  S
C1543      C1544   1.408       .  A
C1543      C1548   1.393       .  A
C1543      H1553   1.079       .  S
C1544      C1549   1.505       .  S
C1544      C1545   1.411       .  A
C1545      C1546   1.413       .  A
C1545      H1550   1.083       .  S
C1546      C1547   1.412       .  A
C1546      H1551   1.082       .  S
C1547      C1548   1.405       .  A
C1548      H1552   1.081       .  S
C1549      C1554   1.406       .  A
C1549      C1558   1.415       .  A
C1554      C1555   1.390       .  A
C1554      H1559   1.080       .  S
C1555      C1556   1.404       .  A
C1555      H1560   1.084       .  S
C1556      C1557   1.405       .  A
C1557      C1558   1.414       .  A
C1557      H1561   1.082       .  S
C1558      H1562   1.081       .  S
C1563      C1564   1.410       .  A
C1563      C1568   1.398       .  A
C1563      H1573   1.082       .  S
C1564      C1569   1.501       .  S
C1564      C1565   1.409       .  A
C1565      C1566   1.404       .  A
C1565      H1570   1.082       .  S
C1566      C1567   1.409       .  A
C1566      H1571   1.083       .  S
C1567      C1568   1.403       .  A
C1568      H1572   1.081       .  S
C1569      C1574   1.406       .  A
C1569      C1578   1.411       .  A
C1574      C1575   1.395       .  A
C1574      H1579   1.080       .  S
C1575      C1576   1.409       .  A
C1575      H1580   1.084       .  S
C1576      C1577   1.408       .  A
C1577      C1578   1.407       .  A
C1577      H1581   1.080       .  S
C1578      H1582   1.085       .  S
C1583      C1584   1.405       .  A
C1583      C1588   1.401       .  A
C1583      H1593   1.083       .  S
C1584      C1589   1.483       .  S
C1584      C1585   1.403       .  A
C1585      C1586   1.400       .  A
C1585      H1590   1.083       .  S
C1586      C1587   1.408       .  A
C1586      H1591   1.082       .  S
C1587      C1588   1.406       .  A
C1588      H1592   1.083       .  S
C1589      C1594   1.402       .  A
C1589      C1598   1.404       .  A
C1594      C1595   1.400       .  A
C1594      H1599   1.084       .  S
C1595      C1596   1.410       .  A
C1595      H1600   1.082       .  S
C1596      C1597   1.408       .  A
C1597      C1598   1.401       .  A
C1597      H1601   1.083       .  S
C1598      H1602   1.082       .  S
C1603      C1604   1.400       .  A
C1603      C1608   1.395       .  A
C1603      H1613   1.083       .  S
C1604      C1609   1.480       .  S
C1604      C1605   1.406       .  A
C1605      C1606   1.405       .  A
C1605      H1610   1.084       .  S
C1606      C1607   1.407       .  A
C1606      H1611   1.081       .  S
C1607      C1608   1.409       .  A
C1608      H1612   1.081       .  S
C1609      C1614   1.404       .  A
C1609      C1618   1.402       .  A
C1614      C1615   1.399       .  A
C1614      H1619   1.083       .  S
C1615      C1616   1.405       .  A
C1615      H1620   1.081       .  S
C1616      C1617   1.408       .  A
C1617      C1618   1.401       .  A
C1617      H1621   1.084       .  S
C1618      H1622   1.081       .  S
C1623      C1624   1.409       .  A
C1623      C1628   1.397       .  A
C1623      H1633   1.081       .  S
C1624      C1629   1.491       .  S
C1624      C1625   1.406       .  A
C1625      C1626   1.403       .  A
C1625      H1630   1.085       .  S
C1626      C1627   1.408       .  A
C1626      H1631   1.084       .  S
C1627      C1628   1.401       .  A
C1628      H1632   1.086       .  S
C1629      C1634   1.409       .  A
C1629      C1638   1.405       .  A
C1634      C1635   1.406       .  A
C1634      H1639   1.085       .  S
C1635      C1636   1.406       .  A
C1635      H1640   1.080       .  S
C1636      C1637   1.404       .  A
C1637      C1638   1.395       .  A
C1637      H1641   1.084       .  S
C1638      H1642   1.080       .  S
C1643      C1644   1.410       .  A
C1643      C1648   1.407       .  A
C1643      H1653   1.082       .  S
C1644      C1649   1.497       .  S
C1644      C1645   1.406       .  A
C1645      C1646   1.394       .  A
C1645      H1650   1.079       .  S
C1646      C1647   1.407       .  A
C1646      H1651   1.084       .  S
C1647      C1648   1.407       .  A
C1648      H1652   1.082       .  S
C1649      C1654   1.411       .  A
C1649      C1658   1.408       .  A
C1654      C1655   1.407       .  A
C1654      H1659   1.084       .  S
C1655      C1656   1.405       .  A
C1655      H1660   1.082       .  S
C1656      C1657   1.402       .  A
C1657      C1658   1.394       .  A
C1657      H1661   1.084       .  S
C1658      H1662   1.081       .  S
C1663      C1664   1.406       .  A
C1663      C1668   1.404       .  A
C1663      H1673   1.085       .  S
C1664      C1669   1.499       .  S
C1664      C1665   1.409       .  A
C1665      C1666   1.404       .  A
C1665      H1670   1.084       .  S
C1666      C1667   1.406       .  A
C1666      H1671   1.083       .  S
C1667      C1668   1.410       .  A
C1668      H1672   1.082       .  S
C1669      C1674   1.410       .  A
C1669      C1678   1.406       .  A
C1674      C1675   1.408       .  A
C1674      H1679   1.082       .  S
C1675      C1676   1.408       .  A
C1675      H1680   1.081       .  S
C1676      C1677   1.408       .  A
C1677      C1678   1.400       .  A
C1677      H1681   1.084       .  S
C1678      H1682   1.082       .  S
C1683      C1684   1.406       .  A
C1683      C1688   1.401       .  A
C1683      H1693   1.081       .  S
C1684      C1689   1.494       .  S
C1684      C1685   1.408       .  A
C1685      C1686   1.401       .  A
C1685      H1690   1.082       .  S
C1686      C1687   1.406       .  A
C1686      H1691   1.083       .  S
C1687      C1688   1.409       .  A
C1688      H1692   1.085       .  S
C1689      C1694   1.408       .  A
C1689      C1698   1.406       .  A
C1694      C1695   1.403       .  A
C1694      H1699   1.085       .  S
C1695      C1696   1.408       .  A
C1695      H1700   1.083       .  S
C1696      C1697   1.407       .  A
C1697      C1698   1.399       .  A
C1697      H1701   1.081       .  S
C1698      H1702   1.082       .  S
C1703      C1704   1.410       .  A
C1703      C1708   1.405       .  A
C1703      H1713   1.082       .  S
C1704      C1709   1.499       .  S
C1704      C1705   1.406       .  A
C1705      C1706   1.403       .  A
C1705      H1710   1.083       .  S
C1706      C1707   1.410       .  A
C1706      H1711   1.085       .  S
C1707      C1708   1.407       .  A
C1708      H1712   1.082       .  S
C1709      C1714   1.406       .  A
C1709      C1718   1.410       .  A
C1714      C1715   1.402       .  A
C1714      H1719   1.081       .  S
C1715      C1716   1.410       .  A
C1715      H1720   1.084       .  S
C1716      C1717   1.407       .  A
C1717      C1718   1.406       .  A
C1717      H1721   1.082       .  S
C1718      H1722   1.083       .  S
C1723      C1724   1.405       .  A
C1723      C1728   1.401       .  A
C1723      H1733   1.082       .  S
C1724      C1729   1.493       .  S
C1724      C1725   1.408       .  A
C1725      C1726   1.402       .  A
C1725      H1730   1.081       .  S
C1726      C1727   1.406       .  A
C1726      H1731   1.084       .  S
C1727      C1728   1.409       .  A
C1728      H1732   1.082       .  S
C1729      C1734   1.408       .  A
C1729      C1738   1.405       .  A
C1734      C1735   1.403       .  A
C1734      H1739   1.080       .  S
C1735      C1736   1.406       .  A
C1735      H1740   1.084       .  S
C1736      C1737   1.409       .  A
C1737      C1738   1.399       .  A
C1737      H1741   1.083       .  S
C1738      H1742   1.083       .  S
C1743      C1744   1.407       .  A
C1743      C1748   1.404       .  A
C1743      H1753   1.080       .  S
C1744      C1749   1.500       .  S
C1744      C1745   1.410       .  A
C1745      C1746   1.403       .  A
C1745      H1750   1.083       .  S
C1746      C1747   1.406       .  A
C1746      H1751   1.080       .  S
C1747      C1748   1.410       .  A
C1748      H1752   1.086       .  S
C1749      C1754   1.411       .  A
C1749      C1758   1.406       .  A
C1754      C1755   1.409       .  A
C1754      H1759   1.084       .  S
C1755      C1756   1.407       .  A
C1755      H1760   1.083       .  S
C1756      C1757   1.408       .  A
C1757      C1758   1.399       .  A
C1757      H1761   1.085       .  S
C1758      H1762   1.082       .  S
C1763      C1764   1.406       .  A
C1763      C1768   1.399       .  A
C1763      H1773   1.079       .  S
C1764      C1769   1.501       .  S
C1764      C1765   1.410       .  A
C1765      C1766   1.408       .  A
C1765      H1770   1.084       .  S
C1766      C1767   1.410       .  A
C1766      H1771   1.084       .  S
C1767      C1768   1.408       .  A
C1768      H1772   1.083       .  S
C1769      C1774   1.411       .  A
C1769      C1778   1.406       .  A
C1774      C1775   1.405       .  A
C1774      H1779   1.084       .  S
C1775      C1776   1.405       .  A
C1775      H1780   1.079       .  S
C1776      C1777   1.411       .  A
C1777      C1778   1.401       .  A
C1777      H1781   1.086       .  S
C1778      H1782   1.080       .  S
C1783      C1784   1.413       .  A
C1783      C1788   1.412       .  A
C1783      H1793   1.088       .  S
C1784      C1789   1.503       .  S
C1784      C1785   1.406       .  A
C1785      C1786   1.391       .  A
C1785      H1790   1.078       .  S
C1786      C1787   1.407       .  A
C1786      H1791   1.085       .  S
C1787      C1788   1.410       .  A
C1788      H1792   1.080       .  S
C1789      C1794   1.413       .  A
C1789      C1798   1.409       .  A
C1794      C1795   1.410       .  A
C1794      H1799   1.082       .  S
C1795      C1796   1.405       .  A
C1795      H1800   1.086       .  S
C1796      C1797   1.401       .  A
C1797      C1798   1.392       .  A
C1797      H1801   1.081       .  S
C1798      H1802   1.082       .  S
C1803      C1804   1.404       .  A
C1803      C1808   1.403       .  A
C1803      H1813   1.085       .  S
C1804      C1809   1.476       .  S
C1804      C1805   1.402       .  A
C1805      C1806   1.390       .  A
C1805      H1810   1.082       .  S
C1806      C1807   1.404       .  A
C1806      H1811   1.085       .  S
C1807      C1808   1.407       .  A
C1808      H1812   1.081       .  S
C1809      C1814   1.405       .  A
C1809      C1818   1.401       .  A
C1814      C1815   1.394       .  A
C1814      H1819   1.084       .  S
C1815      C1816   1.401       .  A
C1815      H1820   1.083       .  S
C1816      C1817   1.408       .  A
C1817      C1818   1.399       .  A
C1817      H1821   1.083       .  S
C1818      H1822   1.084       .  S
C1823      C1824   1.406       .  A
C1823      C1828   1.402       .  A
C1823      H1833   1.082       .  S
C1824      C1829   1.493       .  S
C1824      C1825   1.407       .  A
C1825      C1826   1.401       .  A
C1825      H1830   1.086       .  S
C1826      C1827   1.407       .  A
C1826      H1831   1.080       .  S
C1827      C1828   1.409       .  A
C1828      H1832   1.085       .  S
C1829      C1834   1.408       .  A
C1829      C1838   1.406       .  A
C1834      C1835   1.406       .  A
C1834      H1839   1.087       .  S
C1835      C1836   1.408       .  A
C1835      H1840   1.079       .  S
C1836      C1837   1.406       .  A
C1837      C1838   1.397       .  A
C1837      H1841   1.085       .  S
C1838      H1842   1.081       .  S
C1843      C1844   1.407       .  A
C1843      C1848   1.402       .  A
C1843      H1853   1.083       .  S
C1844      C1849   1.498       .  S
C1844      C1845   1.409       .  A
C1845      C1846   1.405       .  A
C1845      H1850   1.081       .  S
C1846      C1847   1.407       .  A
C1846      H1851   1.085       .  S
C1847      C1848   1.408       .  A
C1848      H1852   1.081       .  S
C1849      C1854   1.408       .  A
C1849      C1858   1.406       .  A
C1854      C1855   1.404       .  A
C1854      H1859   1.085       .  S
C1855      C1856   1.409       .  A
C1855      H1860   1.081       .  S
C1856      C1857   1.411       .  A
C1857      C1858   1.404       .  A
C1857      H1861   1.083       .  S
C1858      H1862   1.084       .  S
C1863      C1864   1.401       .  A
C1863      C1868   1.397       .  A
C1863      H1873   1.083       .  S
C1864      C1869   1.482       .  S
C1864      C1865   1.405       .  A
C1865      C1866   1.402       .  A
C1865      H1870   1.082       .  S
C1866      C1867   1.408       .  A
C1866      H1871   1.084       .  S
C1867      C1868   1.410       .  A
C1868      H1872   1.083       .  S
C1869      C1874   1.405       .  A
C1869      C1878   1.404       .  A
C1874      C1875   1.398       .  A
C1874      H1879   1.081       .  S
C1875      C1876   1.405       .  A
C1875      H1880   1.084       .  S
C1876      C1877   1.407       .  A
C1877      C1878   1.401       .  A
C1877      H1881   1.082       .  S
C1878      H1882   1.082       .  S
C1883      C1884   1.406       .  A
C1883      C1888   1.396       .  A
C1883      H1893   1.084       .  S
C1884      C1889   1.501       .  S
C1884      C1885   1.410       .  A
C1885      C1886   1.407       .  A
C1885      H1890   1.084       .  S
C1886      C1887   1.409       .  A
C1886      H1891   1.082       .  S
C1887      C1888   1.409       .  A
C1888      H1892   1.081       .  S
C1889      C1894   1.408       .  A
C1889      C1898   1.411       .  A
C1894      C1895   1.396       .  A
C1894      H1899   1.081       .  S
C1895      C1896   1.405       .  A
C1895      H1900   1.087       .  S
C1896      C1897   1.406       .  A
C1897      C1898   1.407       .  A
C1897      H1901   1.083       .  S
C1898      H1902   1.083       .  S
